<?xml version="1.0" encoding="UTF-8"?>

<!-- generated on 2024-10-13 19:25:11 by Eclipse SUMO netedit Version 1.18.0
<configuration xmlns:xsi="http://www.w3.org/2001/XMLSchema-instance" xsi:noNamespaceSchemaLocation="http://sumo.dlr.de/xsd/neteditConfiguration.xsd">

    <input>
        <sumo-net-file value="D:\ours_raw_data\hz1x1_person\hangzhou_1x1_bc-tyc_18041610_1h.net.xml"/>
    </input>

    <output>
        <output-file value="D:\ours_raw_data\hz1x1_person\hangzhou_1x1_bc-tyc_18041610_1h.net.xml"/>
    </output>

    <processing>
        <geometry.min-radius.fix.railways value="false"/>
        <geometry.max-grade.fix value="false"/>
        <offset.disable-normalization value="true"/>
        <lefthand value="0"/>
    </processing>

    <junctions>
        <no-internal-links value="false"/>
        <no-turnarounds value="true"/>
        <junctions.corner-detail value="5"/>
        <junctions.limit-turn-speed value="5.50"/>
        <rectangular-lane-cut value="0"/>
    </junctions>

    <pedestrian>
        <walkingareas value="0"/>
    </pedestrian>

</configuration>
-->

<net version="1.16" junctionCornerDetail="5" limitTurnSpeed="5.50" xmlns:xsi="http://www.w3.org/2001/XMLSchema-instance" xsi:noNamespaceSchemaLocation="http://sumo.dlr.de/xsd/net_file.xsd">

    <location netOffset="300.00,300.00" convBoundary="0.00,0.00,600.00,600.00" origBoundary="-300.00,-300.00,300.00,300.00" projParameter="!"/>

    <edge id=":intersection_0_1_0" function="internal">
        <lane id=":intersection_0_1_0_0" index="0" disallow="pedestrian" speed="3.65" length="4.67" shape="0.00,301.60 -1.20,300.80 -1.60,300.00 -1.20,299.20 0.00,298.40"/>
    </edge>
    <edge id=":intersection_0_1_w0" function="walkingarea">
        <lane id=":intersection_0_1_w0_0" index="0" allow="pedestrian" speed="2.78" length="14.80" width="2.00" shape="0.00,293.60 0.00,291.60 0.00,308.40 0.00,306.40"/>
    </edge>
    <edge id=":intersection_1_0_0" function="internal">
        <lane id=":intersection_1_0_0_0" index="0" disallow="pedestrian" speed="3.65" length="4.67" shape="298.40,0.00 299.20,-1.20 300.00,-1.60 300.80,-1.20 301.60,0.00"/>
    </edge>
    <edge id=":intersection_1_0_w0" function="walkingarea">
        <lane id=":intersection_1_0_w0_0" index="0" allow="pedestrian" speed="2.78" length="14.80" width="2.00" shape="306.40,0.00 308.40,0.00 291.60,0.00 293.60,0.00"/>
    </edge>
    <edge id=":intersection_1_1_0" function="internal">
        <lane id=":intersection_1_1_0_0" index="0" disallow="pedestrian" speed="11.11" length="20.96" shape="295.20,310.40 295.20,289.60"/>
        <lane id=":intersection_1_1_0_1" index="1" disallow="pedestrian" speed="11.11" length="20.96" shape="295.20,310.40 295.70,304.19 296.80,300.00 297.90,295.81 298.40,289.60"/>
    </edge>
    <edge id=":intersection_1_1_2" function="internal">
        <lane id=":intersection_1_1_2_0" index="0" disallow="pedestrian" speed="9.84" length="17.93" shape="298.40,310.40 299.15,303.75 301.40,299.00 305.15,296.15 306.40,295.92"/>
        <lane id=":intersection_1_1_2_1" index="1" disallow="pedestrian" speed="9.26" length="15.31" shape="298.40,310.40 299.15,305.15 301.40,301.40 305.15,299.15 306.40,298.97"/>
    </edge>
    <edge id=":intersection_1_1_16" function="internal">
        <lane id=":intersection_1_1_16_0" index="0" disallow="pedestrian" speed="9.84" length="4.06" shape="306.40,295.92 310.40,295.20"/>
    </edge>
    <edge id=":intersection_1_1_17" function="internal">
        <lane id=":intersection_1_1_17_0" index="0" disallow="pedestrian" speed="9.26" length="4.04" shape="306.40,298.97 310.40,298.40"/>
    </edge>
    <edge id=":intersection_1_1_4" function="internal">
        <lane id=":intersection_1_1_4_0" index="0" disallow="pedestrian" speed="11.11" length="20.96" shape="310.40,304.80 289.60,304.80"/>
        <lane id=":intersection_1_1_4_1" index="1" disallow="pedestrian" speed="11.11" length="20.96" shape="310.40,304.80 304.19,304.30 300.00,303.20 295.81,302.10 289.60,301.60"/>
    </edge>
    <edge id=":intersection_1_1_6" function="internal">
        <lane id=":intersection_1_1_6_0" index="0" disallow="pedestrian" speed="9.84" length="17.93" shape="310.40,301.60 303.75,300.85 299.00,298.60 296.15,294.85 295.92,293.60"/>
        <lane id=":intersection_1_1_6_1" index="1" disallow="pedestrian" speed="9.26" length="15.31" shape="310.40,301.60 305.15,300.85 301.40,298.60 299.15,294.85 298.97,293.60"/>
    </edge>
    <edge id=":intersection_1_1_18" function="internal">
        <lane id=":intersection_1_1_18_0" index="0" disallow="pedestrian" speed="9.84" length="4.06" shape="295.92,293.60 295.20,289.60"/>
    </edge>
    <edge id=":intersection_1_1_19" function="internal">
        <lane id=":intersection_1_1_19_0" index="0" disallow="pedestrian" speed="9.26" length="4.04" shape="298.97,293.60 298.40,289.60"/>
    </edge>
    <edge id=":intersection_1_1_8" function="internal">
        <lane id=":intersection_1_1_8_0" index="0" disallow="pedestrian" speed="11.11" length="20.96" shape="304.80,289.60 304.80,310.40"/>
        <lane id=":intersection_1_1_8_1" index="1" disallow="pedestrian" speed="11.11" length="20.96" shape="304.80,289.60 304.30,295.81 303.20,300.00 302.10,304.19 301.60,310.40"/>
    </edge>
    <edge id=":intersection_1_1_10" function="internal">
        <lane id=":intersection_1_1_10_0" index="0" disallow="pedestrian" speed="9.84" length="17.93" shape="301.60,289.60 300.85,296.25 298.60,301.00 294.85,303.85 293.60,304.08"/>
        <lane id=":intersection_1_1_10_1" index="1" disallow="pedestrian" speed="9.26" length="15.31" shape="301.60,289.60 300.85,294.85 298.60,298.60 294.85,300.85 293.60,301.03"/>
    </edge>
    <edge id=":intersection_1_1_20" function="internal">
        <lane id=":intersection_1_1_20_0" index="0" disallow="pedestrian" speed="9.84" length="4.06" shape="293.60,304.08 289.60,304.80"/>
    </edge>
    <edge id=":intersection_1_1_21" function="internal">
        <lane id=":intersection_1_1_21_0" index="0" disallow="pedestrian" speed="9.26" length="4.04" shape="293.60,301.03 289.60,301.60"/>
    </edge>
    <edge id=":intersection_1_1_12" function="internal">
        <lane id=":intersection_1_1_12_0" index="0" disallow="pedestrian" speed="11.11" length="20.96" shape="289.60,295.20 310.40,295.20"/>
        <lane id=":intersection_1_1_12_1" index="1" disallow="pedestrian" speed="11.11" length="20.96" shape="289.60,295.20 295.81,295.70 300.00,296.80 304.19,297.90 310.40,298.40"/>
    </edge>
    <edge id=":intersection_1_1_14" function="internal">
        <lane id=":intersection_1_1_14_0" index="0" disallow="pedestrian" speed="9.84" length="17.93" shape="289.60,298.40 296.25,299.15 301.00,301.40 303.85,305.15 304.08,306.40"/>
        <lane id=":intersection_1_1_14_1" index="1" disallow="pedestrian" speed="9.26" length="15.31" shape="289.60,298.40 294.85,299.15 298.60,301.40 300.85,305.15 301.03,306.40"/>
    </edge>
    <edge id=":intersection_1_1_22" function="internal">
        <lane id=":intersection_1_1_22_0" index="0" disallow="pedestrian" speed="9.84" length="4.06" shape="304.08,306.40 304.80,310.40"/>
    </edge>
    <edge id=":intersection_1_1_23" function="internal">
        <lane id=":intersection_1_1_23_0" index="0" disallow="pedestrian" speed="9.26" length="4.04" shape="301.03,306.40 301.60,310.40"/>
    </edge>
    <edge id=":intersection_1_1_c0" function="crossing" crossingEdges="road_1_1_1 road_1_2_3">
        <lane id=":intersection_1_1_c0_0" index="0" allow="pedestrian" speed="2.78" length="12.80" width="4.00" shape="306.40,308.40 293.60,308.40"/>
    </edge>
    <edge id=":intersection_1_1_c1" function="crossing" crossingEdges="road_1_1_0 road_2_1_2">
        <lane id=":intersection_1_1_c1_0" index="0" allow="pedestrian" speed="2.78" length="12.80" width="4.00" shape="308.40,293.60 308.40,306.40"/>
    </edge>
    <edge id=":intersection_1_1_c2" function="crossing" crossingEdges="road_1_1_3 road_1_0_1">
        <lane id=":intersection_1_1_c2_0" index="0" allow="pedestrian" speed="2.78" length="12.80" width="4.00" shape="293.60,291.60 306.40,291.60"/>
    </edge>
    <edge id=":intersection_1_1_c3" function="crossing" crossingEdges="road_1_1_2 road_0_1_0">
        <lane id=":intersection_1_1_c3_0" index="0" allow="pedestrian" speed="2.78" length="12.80" width="4.00" shape="291.60,306.40 291.60,293.60"/>
    </edge>
    <edge id=":intersection_1_1_w0" function="walkingarea">
        <lane id=":intersection_1_1_w0_0" index="0" allow="pedestrian" speed="2.78" length="3.30" width="4.00" shape="289.60,306.40 289.60,308.40 291.60,310.40 293.60,310.40 293.49,309.18 293.16,308.18 292.60,307.40 291.82,306.84 290.82,306.51"/>
    </edge>
    <edge id=":intersection_1_1_w1" function="walkingarea">
        <lane id=":intersection_1_1_w1_0" index="0" allow="pedestrian" speed="2.78" length="3.30" width="4.00" shape="306.40,310.40 308.40,310.40 310.40,308.40 310.40,306.40 309.18,306.51 308.18,306.84 307.40,307.40 306.84,308.18 306.51,309.18"/>
    </edge>
    <edge id=":intersection_1_1_w2" function="walkingarea">
        <lane id=":intersection_1_1_w2_0" index="0" allow="pedestrian" speed="2.78" length="3.30" width="4.00" shape="310.40,293.60 310.40,291.60 308.40,289.60 306.40,289.60 306.51,290.82 306.84,291.82 307.40,292.60 308.18,293.16 309.18,293.49"/>
    </edge>
    <edge id=":intersection_1_1_w3" function="walkingarea">
        <lane id=":intersection_1_1_w3_0" index="0" allow="pedestrian" speed="2.78" length="3.30" width="4.00" shape="293.60,289.60 291.60,289.60 289.60,291.60 289.60,293.60 290.82,293.49 291.82,293.16 292.60,292.60 293.16,291.82 293.49,290.82"/>
    </edge>
    <edge id=":intersection_1_2_0" function="internal">
        <lane id=":intersection_1_2_0_0" index="0" disallow="pedestrian" speed="3.65" length="4.67" shape="301.60,600.00 300.80,601.20 300.00,601.60 299.20,601.20 298.40,600.00"/>
    </edge>
    <edge id=":intersection_1_2_w0" function="walkingarea">
        <lane id=":intersection_1_2_w0_0" index="0" allow="pedestrian" speed="2.78" length="14.80" width="2.00" shape="293.60,600.00 291.60,600.00 308.40,600.00 306.40,600.00"/>
    </edge>
    <edge id=":intersection_2_1_0" function="internal">
        <lane id=":intersection_2_1_0_0" index="0" disallow="pedestrian" speed="3.65" length="4.67" shape="600.00,298.40 601.20,299.20 601.60,300.00 601.20,300.80 600.00,301.60"/>
    </edge>
    <edge id=":intersection_2_1_w0" function="walkingarea">
        <lane id=":intersection_2_1_w0_0" index="0" allow="pedestrian" speed="2.78" length="14.80" width="2.00" shape="600.00,306.40 600.00,308.40 600.00,291.60 600.00,293.60"/>
    </edge>

    <edge id="road_0_1_0" from="intersection_0_1" to="intersection_1_1" priority="-1">
        <lane id="road_0_1_0_0" index="0" allow="pedestrian" speed="11.11" length="289.60" width="2.00" shape="0.00,292.60 289.60,292.60"/>
        <lane id="road_0_1_0_1" index="1" disallow="pedestrian" speed="11.11" length="289.60" shape="0.00,295.20 289.60,295.20"/>
        <lane id="road_0_1_0_2" index="2" disallow="pedestrian" speed="11.11" length="289.60" shape="0.00,298.40 289.60,298.40"/>
    </edge>
    <edge id="road_1_0_1" from="intersection_1_0" to="intersection_1_1" priority="-1">
        <lane id="road_1_0_1_0" index="0" allow="pedestrian" speed="11.11" length="289.60" width="2.00" shape="307.40,0.00 307.40,289.60"/>
        <lane id="road_1_0_1_1" index="1" disallow="pedestrian" speed="11.11" length="289.60" shape="304.80,0.00 304.80,289.60"/>
        <lane id="road_1_0_1_2" index="2" disallow="pedestrian" speed="11.11" length="289.60" shape="301.60,0.00 301.60,289.60"/>
    </edge>
    <edge id="road_1_1_0" from="intersection_1_1" to="intersection_2_1" priority="-1">
        <lane id="road_1_1_0_0" index="0" allow="pedestrian" speed="11.11" length="289.60" width="2.00" shape="310.40,292.60 600.00,292.60"/>
        <lane id="road_1_1_0_1" index="1" disallow="pedestrian" speed="11.11" length="289.60" shape="310.40,295.20 600.00,295.20"/>
        <lane id="road_1_1_0_2" index="2" disallow="pedestrian" speed="11.11" length="289.60" shape="310.40,298.40 600.00,298.40"/>
    </edge>
    <edge id="road_1_1_1" from="intersection_1_1" to="intersection_1_2" priority="-1">
        <lane id="road_1_1_1_0" index="0" allow="pedestrian" speed="11.11" length="289.60" width="2.00" shape="307.40,310.40 307.40,600.00"/>
        <lane id="road_1_1_1_1" index="1" disallow="pedestrian" speed="11.11" length="289.60" shape="304.80,310.40 304.80,600.00"/>
        <lane id="road_1_1_1_2" index="2" disallow="pedestrian" speed="11.11" length="289.60" shape="301.60,310.40 301.60,600.00"/>
    </edge>
    <edge id="road_1_1_2" from="intersection_1_1" to="intersection_0_1" priority="-1">
        <lane id="road_1_1_2_0" index="0" allow="pedestrian" speed="11.11" length="289.60" width="2.00" shape="289.60,307.40 0.00,307.40"/>
        <lane id="road_1_1_2_1" index="1" disallow="pedestrian" speed="11.11" length="289.60" shape="289.60,304.80 0.00,304.80"/>
        <lane id="road_1_1_2_2" index="2" disallow="pedestrian" speed="11.11" length="289.60" shape="289.60,301.60 0.00,301.60"/>
    </edge>
    <edge id="road_1_1_3" from="intersection_1_1" to="intersection_1_0" priority="-1">
        <lane id="road_1_1_3_0" index="0" allow="pedestrian" speed="11.11" length="289.60" width="2.00" shape="292.60,289.60 292.60,0.00"/>
        <lane id="road_1_1_3_1" index="1" disallow="pedestrian" speed="11.11" length="289.60" shape="295.20,289.60 295.20,0.00"/>
        <lane id="road_1_1_3_2" index="2" disallow="pedestrian" speed="11.11" length="289.60" shape="298.40,289.60 298.40,0.00"/>
    </edge>
    <edge id="road_1_2_3" from="intersection_1_2" to="intersection_1_1" priority="-1">
        <lane id="road_1_2_3_0" index="0" allow="pedestrian" speed="11.11" length="289.60" width="2.00" shape="292.60,600.00 292.60,310.40"/>
        <lane id="road_1_2_3_1" index="1" disallow="pedestrian" speed="11.11" length="289.60" shape="295.20,600.00 295.20,310.40"/>
        <lane id="road_1_2_3_2" index="2" disallow="pedestrian" speed="11.11" length="289.60" shape="298.40,600.00 298.40,310.40"/>
    </edge>
    <edge id="road_2_1_2" from="intersection_2_1" to="intersection_1_1" priority="-1">
        <lane id="road_2_1_2_0" index="0" allow="pedestrian" speed="11.11" length="289.60" width="2.00" shape="600.00,307.40 310.40,307.40"/>
        <lane id="road_2_1_2_1" index="1" disallow="pedestrian" speed="11.11" length="289.60" shape="600.00,304.80 310.40,304.80"/>
        <lane id="road_2_1_2_2" index="2" disallow="pedestrian" speed="11.11" length="289.60" shape="600.00,301.60 310.40,301.60"/>
    </edge>

    <tlLogic id="intersection_1_1" type="static" programID="0" offset="0">
        <phase duration="30" state="rrrrGGrrrrrrGGrrGrGr"/>
        <phase duration="5"  state="rrrrrrrrrrrrrrrrrrrr"/>
        <phase duration="30" state="GGrrrrrrGGrrrrrrrGrG"/>
        <phase duration="5"  state="rrrrrrrrrrrrrrrrrrrr"/>
        <phase duration="30" state="rrrrrrGGrrrrrrGGrrrr"/>
        <phase duration="5"  state="rrrrrrrrrrrrrrrrrrrr"/>
        <phase duration="30" state="rrGGrrrrrrGGrrrrrrrr"/>
        <phase duration="5"  state="rrrrrrrrrrrrrrrrrrrr"/>
        <phase duration="30" state="rrrrrrrrrrrrGGGGrrGr"/>
        <phase duration="5"  state="rrrrrrrrrrrrrrrrrrrr"/>
        <phase duration="30" state="rrrrGGGGrrrrrrrrGrrr"/>
        <phase duration="5"  state="rrrrrrrrrrrrrrrrrrrr"/>
        <phase duration="30" state="rrrrrrrrGGGGrrrrrGrr"/>
        <phase duration="5"  state="rrrrrrrrrrrrrrrrrrrr"/>
        <phase duration="30" state="GGGGrrrrrrrrrrrrrrrG"/>
        <phase duration="5"  state="rrrrrrrrrrrrrrrrrrrr"/>
    </tlLogic>

    <junction id="intersection_0_1" type="priority" x="0.00" y="300.00" incLanes="road_1_1_2_0 road_1_1_2_1 road_1_1_2_2" intLanes=":intersection_0_1_0_0" shape="0.00,300.00 0.00,308.40 0.00,300.00">
        <request index="0" response="0" foes="0" cont="0"/>
    </junction>
    <junction id="intersection_1_0" type="priority" x="300.00" y="0.00" incLanes="road_1_1_3_0 road_1_1_3_1 road_1_1_3_2" intLanes=":intersection_1_0_0_0" shape="300.00,0.00 291.60,0.00 300.00,0.00">
        <request index="0" response="0" foes="0" cont="0"/>
    </junction>
    <junction id="intersection_1_1" type="traffic_light" x="300.00" y="300.00" incLanes="road_1_2_3_0 road_1_2_3_1 road_1_2_3_2 road_2_1_2_0 road_2_1_2_1 road_2_1_2_2 road_1_0_1_0 road_1_0_1_1 road_1_0_1_2 road_0_1_0_0 road_0_1_0_1 road_0_1_0_2 :intersection_1_1_w1_0 :intersection_1_1_w2_0 :intersection_1_1_w3_0 :intersection_1_1_w0_0" intLanes=":intersection_1_1_0_0 :intersection_1_1_0_1 :intersection_1_1_16_0 :intersection_1_1_17_0 :intersection_1_1_4_0 :intersection_1_1_4_1 :intersection_1_1_18_0 :intersection_1_1_19_0 :intersection_1_1_8_0 :intersection_1_1_8_1 :intersection_1_1_20_0 :intersection_1_1_21_0 :intersection_1_1_12_0 :intersection_1_1_12_1 :intersection_1_1_22_0 :intersection_1_1_23_0 :intersection_1_1_c0_0 :intersection_1_1_c1_0 :intersection_1_1_c2_0 :intersection_1_1_c3_0" shape="291.60,310.40 308.40,310.40 308.62,309.29 308.90,308.90 309.29,308.62 309.79,308.46 310.40,308.40 310.40,291.60 309.29,291.38 308.90,291.10 308.62,290.71 308.46,290.21 308.40,289.60 291.60,289.60 291.38,290.71 291.10,291.10 290.71,291.38 290.21,291.54 289.60,291.60 289.60,308.40 290.71,308.62 291.10,308.90 291.38,309.29 291.54,309.79">
        <request index="0"  response="01011100110011000000" foes="01011111110011110000" cont="0"/>
        <request index="1"  response="01011100110011000000" foes="01011111110011110000" cont="0"/>
        <request index="2"  response="00111100001111000000" foes="00111111011111110000" cont="1"/>
        <request index="3"  response="00111100001111000000" foes="00111111001111110000" cont="1"/>
        <request index="4"  response="10101100111100001111" foes="10101100111100001111" cont="0"/>
        <request index="5"  response="10101100111100001111" foes="10101100111100001111" cont="0"/>
        <request index="6"  response="01100011111100001111" foes="01100111111100001111" cont="1"/>
        <request index="7"  response="01100011111100001111" foes="01100011111100001111" cont="1"/>
        <request index="8"  response="01011100000011001100" foes="01011111000011111100" cont="0"/>
        <request index="9"  response="01011100000011001100" foes="01011111000011111100" cont="0"/>
        <request index="10" response="11001100000011000111" foes="11001111000011110111" cont="1"/>
        <request index="11" response="11001100000011000011" foes="11001111000011110011" cont="1"/>
        <request index="12" response="10100000111111001111" foes="10100000111111001111" cont="0"/>
        <request index="13" response="10100000111111001111" foes="10100000111111001111" cont="0"/>
        <request index="14" response="10010000111101111111" foes="10010000111101111111" cont="1"/>
        <request index="15" response="10010000111100111111" foes="10010000111100111111" cont="1"/>
        <request index="16" response="00000000000000000000" foes="00001100001100001111" cont="0"/>
        <request index="17" response="00000000000000000000" foes="00000011000011111100" cont="0"/>
        <request index="18" response="00000000000000000000" foes="00000000111111000011" cont="0"/>
        <request index="19" response="00000000000000000000" foes="00001111110000110000" cont="0"/>
    </junction>
    <junction id="intersection_1_2" type="priority" x="300.00" y="600.00" incLanes="road_1_1_1_0 road_1_1_1_1 road_1_1_1_2" intLanes=":intersection_1_2_0_0" shape="300.00,600.00 308.40,600.00 300.00,600.00">
        <request index="0" response="0" foes="0" cont="0"/>
    </junction>
    <junction id="intersection_2_1" type="priority" x="600.00" y="300.00" incLanes="road_1_1_0_0 road_1_1_0_1 road_1_1_0_2" intLanes=":intersection_2_1_0_0" shape="600.00,300.00 600.00,291.60 600.00,300.00">
        <request index="0" response="0" foes="0" cont="0"/>
    </junction>

    <junction id=":intersection_1_1_16_0" type="internal" x="306.40" y="295.92" incLanes=":intersection_1_1_2_0" intLanes=":intersection_1_1_4_0 :intersection_1_1_4_1 :intersection_1_1_6_0 :intersection_1_1_6_1 :intersection_1_1_8_0 :intersection_1_1_8_1 :intersection_1_1_12_0 :intersection_1_1_12_1 :intersection_1_1_14_0 :intersection_1_1_14_1 :intersection_1_1_c0_0 :intersection_1_1_c1_0"/>
    <junction id=":intersection_1_1_17_0" type="internal" x="306.40" y="298.97" incLanes=":intersection_1_1_2_1" intLanes=":intersection_1_1_4_0 :intersection_1_1_4_1 :intersection_1_1_6_0 :intersection_1_1_6_1 :intersection_1_1_8_0 :intersection_1_1_8_1 :intersection_1_1_12_0 :intersection_1_1_12_1 :intersection_1_1_14_0 :intersection_1_1_14_1 :intersection_1_1_c0_0 :intersection_1_1_c1_0"/>
    <junction id=":intersection_1_1_18_0" type="internal" x="295.92" y="293.60" incLanes=":intersection_1_1_6_0" intLanes=":intersection_1_1_0_0 :intersection_1_1_0_1 :intersection_1_1_2_0 :intersection_1_1_2_1 :intersection_1_1_8_0 :intersection_1_1_8_1 :intersection_1_1_10_0 :intersection_1_1_10_1 :intersection_1_1_12_0 :intersection_1_1_12_1 :intersection_1_1_c1_0 :intersection_1_1_c2_0"/>
    <junction id=":intersection_1_1_19_0" type="internal" x="298.97" y="293.60" incLanes=":intersection_1_1_6_1" intLanes=":intersection_1_1_0_0 :intersection_1_1_0_1 :intersection_1_1_2_0 :intersection_1_1_2_1 :intersection_1_1_8_0 :intersection_1_1_8_1 :intersection_1_1_10_0 :intersection_1_1_10_1 :intersection_1_1_12_0 :intersection_1_1_12_1 :intersection_1_1_c1_0 :intersection_1_1_c2_0"/>
    <junction id=":intersection_1_1_20_0" type="internal" x="293.60" y="304.08" incLanes=":intersection_1_1_10_0" intLanes=":intersection_1_1_0_0 :intersection_1_1_0_1 :intersection_1_1_4_0 :intersection_1_1_4_1 :intersection_1_1_6_0 :intersection_1_1_6_1 :intersection_1_1_12_0 :intersection_1_1_12_1 :intersection_1_1_14_0 :intersection_1_1_14_1 :intersection_1_1_c2_0 :intersection_1_1_c3_0"/>
    <junction id=":intersection_1_1_21_0" type="internal" x="293.60" y="301.03" incLanes=":intersection_1_1_10_1" intLanes=":intersection_1_1_0_0 :intersection_1_1_0_1 :intersection_1_1_4_0 :intersection_1_1_4_1 :intersection_1_1_6_0 :intersection_1_1_6_1 :intersection_1_1_12_0 :intersection_1_1_12_1 :intersection_1_1_14_0 :intersection_1_1_14_1 :intersection_1_1_c2_0 :intersection_1_1_c3_0"/>
    <junction id=":intersection_1_1_22_0" type="internal" x="304.08" y="306.40" incLanes=":intersection_1_1_14_0" intLanes=":intersection_1_1_0_0 :intersection_1_1_0_1 :intersection_1_1_2_0 :intersection_1_1_2_1 :intersection_1_1_4_0 :intersection_1_1_4_1 :intersection_1_1_8_0 :intersection_1_1_8_1 :intersection_1_1_10_0 :intersection_1_1_10_1 :intersection_1_1_c0_0 :intersection_1_1_c3_0"/>
    <junction id=":intersection_1_1_23_0" type="internal" x="301.03" y="306.40" incLanes=":intersection_1_1_14_1" intLanes=":intersection_1_1_0_0 :intersection_1_1_0_1 :intersection_1_1_2_0 :intersection_1_1_2_1 :intersection_1_1_4_0 :intersection_1_1_4_1 :intersection_1_1_8_0 :intersection_1_1_8_1 :intersection_1_1_10_0 :intersection_1_1_10_1 :intersection_1_1_c0_0 :intersection_1_1_c3_0"/>

    <connection from="road_0_1_0" to="road_1_1_0" fromLane="1" toLane="1" via=":intersection_1_1_12_0" tl="intersection_1_1" linkIndex="12" dir="s" state="o"/>
    <connection from="road_0_1_0" to="road_1_1_0" fromLane="1" toLane="2" via=":intersection_1_1_12_1" tl="intersection_1_1" linkIndex="13" dir="s" state="o"/>
    <connection from="road_0_1_0" to="road_1_1_1" fromLane="2" toLane="1" via=":intersection_1_1_14_0" tl="intersection_1_1" linkIndex="14" dir="l" state="o"/>
    <connection from="road_0_1_0" to="road_1_1_1" fromLane="2" toLane="2" via=":intersection_1_1_14_1" tl="intersection_1_1" linkIndex="15" dir="l" state="o"/>
    <connection from="road_1_0_1" to="road_1_1_1" fromLane="1" toLane="1" via=":intersection_1_1_8_0" tl="intersection_1_1" linkIndex="8" dir="s" state="o"/>
    <connection from="road_1_0_1" to="road_1_1_1" fromLane="1" toLane="2" via=":intersection_1_1_8_1" tl="intersection_1_1" linkIndex="9" dir="s" state="o"/>
    <connection from="road_1_0_1" to="road_1_1_2" fromLane="2" toLane="1" via=":intersection_1_1_10_0" tl="intersection_1_1" linkIndex="10" dir="l" state="o"/>
    <connection from="road_1_0_1" to="road_1_1_2" fromLane="2" toLane="2" via=":intersection_1_1_10_1" tl="intersection_1_1" linkIndex="11" dir="l" state="o"/>
    <connection from="road_1_1_0" to="road_2_1_2" fromLane="2" toLane="2" via=":intersection_2_1_0_0" dir="t" state="M"/>
    <connection from="road_1_1_1" to="road_1_2_3" fromLane="2" toLane="2" via=":intersection_1_2_0_0" dir="t" state="M"/>
    <connection from="road_1_1_2" to="road_0_1_0" fromLane="2" toLane="2" via=":intersection_0_1_0_0" dir="t" state="M"/>
    <connection from="road_1_1_3" to="road_1_0_1" fromLane="2" toLane="2" via=":intersection_1_0_0_0" dir="t" state="M"/>
    <connection from="road_1_2_3" to="road_1_1_3" fromLane="1" toLane="1" via=":intersection_1_1_0_0" tl="intersection_1_1" linkIndex="0" dir="s" state="o"/>
    <connection from="road_1_2_3" to="road_1_1_3" fromLane="1" toLane="2" via=":intersection_1_1_0_1" tl="intersection_1_1" linkIndex="1" dir="s" state="o"/>
    <connection from="road_1_2_3" to="road_1_1_0" fromLane="2" toLane="1" via=":intersection_1_1_2_0" tl="intersection_1_1" linkIndex="2" dir="l" state="o"/>
    <connection from="road_1_2_3" to="road_1_1_0" fromLane="2" toLane="2" via=":intersection_1_1_2_1" tl="intersection_1_1" linkIndex="3" dir="l" state="o"/>
    <connection from="road_2_1_2" to="road_1_1_2" fromLane="1" toLane="1" via=":intersection_1_1_4_0" tl="intersection_1_1" linkIndex="4" dir="s" state="o"/>
    <connection from="road_2_1_2" to="road_1_1_2" fromLane="1" toLane="2" via=":intersection_1_1_4_1" tl="intersection_1_1" linkIndex="5" dir="s" state="o"/>
    <connection from="road_2_1_2" to="road_1_1_3" fromLane="2" toLane="1" via=":intersection_1_1_6_0" tl="intersection_1_1" linkIndex="6" dir="l" state="o"/>
    <connection from="road_2_1_2" to="road_1_1_3" fromLane="2" toLane="2" via=":intersection_1_1_6_1" tl="intersection_1_1" linkIndex="7" dir="l" state="o"/>

    <connection from=":intersection_0_1_0" to="road_0_1_0" fromLane="0" toLane="2" dir="t" state="M"/>
    <connection from=":intersection_1_0_0" to="road_1_0_1" fromLane="0" toLane="2" dir="t" state="M"/>
    <connection from=":intersection_1_1_0" to="road_1_1_3" fromLane="0" toLane="1" dir="s" state="M"/>
    <connection from=":intersection_1_1_0" to="road_1_1_3" fromLane="1" toLane="2" dir="s" state="M"/>
    <connection from=":intersection_1_1_2" to="road_1_1_0" fromLane="0" toLane="1" via=":intersection_1_1_16_0" dir="l" state="m"/>
    <connection from=":intersection_1_1_16" to="road_1_1_0" fromLane="0" toLane="1" dir="l" state="m"/>
    <connection from=":intersection_1_1_2" to="road_1_1_0" fromLane="1" toLane="2" via=":intersection_1_1_17_0" dir="l" state="m"/>
    <connection from=":intersection_1_1_17" to="road_1_1_0" fromLane="0" toLane="2" dir="l" state="m"/>
    <connection from=":intersection_1_1_4" to="road_1_1_2" fromLane="0" toLane="1" dir="s" state="M"/>
    <connection from=":intersection_1_1_4" to="road_1_1_2" fromLane="1" toLane="2" dir="s" state="M"/>
    <connection from=":intersection_1_1_6" to="road_1_1_3" fromLane="0" toLane="1" via=":intersection_1_1_18_0" dir="l" state="m"/>
    <connection from=":intersection_1_1_18" to="road_1_1_3" fromLane="0" toLane="1" dir="l" state="m"/>
    <connection from=":intersection_1_1_6" to="road_1_1_3" fromLane="1" toLane="2" via=":intersection_1_1_19_0" dir="l" state="m"/>
    <connection from=":intersection_1_1_19" to="road_1_1_3" fromLane="0" toLane="2" dir="l" state="m"/>
    <connection from=":intersection_1_1_8" to="road_1_1_1" fromLane="0" toLane="1" dir="s" state="M"/>
    <connection from=":intersection_1_1_8" to="road_1_1_1" fromLane="1" toLane="2" dir="s" state="M"/>
    <connection from=":intersection_1_1_10" to="road_1_1_2" fromLane="0" toLane="1" via=":intersection_1_1_20_0" dir="l" state="m"/>
    <connection from=":intersection_1_1_20" to="road_1_1_2" fromLane="0" toLane="1" dir="l" state="m"/>
    <connection from=":intersection_1_1_10" to="road_1_1_2" fromLane="1" toLane="2" via=":intersection_1_1_21_0" dir="l" state="m"/>
    <connection from=":intersection_1_1_21" to="road_1_1_2" fromLane="0" toLane="2" dir="l" state="m"/>
    <connection from=":intersection_1_1_12" to="road_1_1_0" fromLane="0" toLane="1" dir="s" state="M"/>
    <connection from=":intersection_1_1_12" to="road_1_1_0" fromLane="1" toLane="2" dir="s" state="M"/>
    <connection from=":intersection_1_1_14" to="road_1_1_1" fromLane="0" toLane="1" via=":intersection_1_1_22_0" dir="l" state="m"/>
    <connection from=":intersection_1_1_22" to="road_1_1_1" fromLane="0" toLane="1" dir="l" state="m"/>
    <connection from=":intersection_1_1_14" to="road_1_1_1" fromLane="1" toLane="2" via=":intersection_1_1_23_0" dir="l" state="m"/>
    <connection from=":intersection_1_1_23" to="road_1_1_1" fromLane="0" toLane="2" dir="l" state="m"/>
    <connection from=":intersection_1_2_0" to="road_1_2_3" fromLane="0" toLane="2" dir="t" state="M"/>
    <connection from=":intersection_2_1_0" to="road_2_1_2" fromLane="0" toLane="2" dir="t" state="M"/>

    <connection from=":intersection_0_1_w0" to="road_0_1_0" fromLane="0" toLane="0" dir="s" state="M"/>
    <connection from="road_1_1_2" to=":intersection_0_1_w0" fromLane="0" toLane="0" dir="s" state="M"/>
    <connection from=":intersection_1_0_w0" to="road_1_0_1" fromLane="0" toLane="0" dir="s" state="M"/>