<?xml version="1.0" encoding="UTF-8"?>

<!-- generated on 2024-10-10 14:09:48 by Eclipse SUMO netedit Version 1.18.0
<configuration xmlns:xsi="http://www.w3.org/2001/XMLSchema-instance" xsi:noNamespaceSchemaLocation="http://sumo.dlr.de/xsd/neteditConfiguration.xsd">

    <input>
        <sumo-net-file value="D:\ours_raw_data\updated net\roadnet_3_4.net.xml"/>
    </input>

    <output>
        <output-file value="D:\ours_raw_data\updated net\roadnet_3_4.net.xml"/>
    </output>

    <processing>
        <geometry.min-radius.fix.railways value="false"/>
        <geometry.max-grade.fix value="false"/>
        <offset.disable-normalization value="true"/>
        <lefthand value="0"/>
    </processing>

    <junctions>
        <no-internal-links value="false"/>
        <no-turnarounds value="true"/>
        <junctions.corner-detail value="5"/>
        <junctions.limit-turn-speed value="5.50"/>
        <rectangular-lane-cut value="0"/>
    </junctions>

    <pedestrian>
        <walkingareas value="0"/>
    </pedestrian>

</configuration>
-->

<net version="1.16" junctionCornerDetail="5" limitTurnSpeed="5.50" xmlns:xsi="http://www.w3.org/2001/XMLSchema-instance" xsi:noNamespaceSchemaLocation="http://sumo.dlr.de/xsd/net_file.xsd">

    <location netOffset="400.00,800.00" convBoundary="0.00,0.00,2000.00,3200.00" origBoundary="-400.00,-800.00,1600.00,2400.00" projParameter="!"/>

    <edge id=":intersection_0_1_0" function="internal">
        <lane id=":intersection_0_1_0_0" index="0" disallow="pedestrian" speed="3.65" length="4.67" shape="0.00,801.60 -1.20,800.80 -1.60,800.00 -1.20,799.20 0.00,798.40"/>
    </edge>
    <edge id=":intersection_0_1_w0" function="walkingarea">
        <lane id=":intersection_0_1_w0_0" index="0" allow="pedestrian" speed="2.78" length="21.20" width="2.00" shape="0.00,790.40 0.00,788.40 0.00,811.60 0.00,809.60"/>
    </edge>
    <edge id=":intersection_0_2_0" function="internal">
        <lane id=":intersection_0_2_0_0" index="0" disallow="pedestrian" speed="3.65" length="4.67" shape="0.00,1601.60 -1.20,1600.80 -1.60,1600.00 -1.20,1599.20 0.00,1598.40"/>
    </edge>
    <edge id=":intersection_0_2_w0" function="walkingarea">
        <lane id=":intersection_0_2_w0_0" index="0" allow="pedestrian" speed="2.78" length="21.20" width="2.00" shape="0.00,1590.40 0.00,1588.40 0.00,1611.60 0.00,1609.60"/>
    </edge>
    <edge id=":intersection_0_3_0" function="internal">
        <lane id=":intersection_0_3_0_0" index="0" disallow="pedestrian" speed="3.65" length="4.67" shape="0.00,2401.60 -1.20,2400.80 -1.60,2400.00 -1.20,2399.20 0.00,2398.40"/>
    </edge>
    <edge id=":intersection_0_3_w0" function="walkingarea">
        <lane id=":intersection_0_3_w0_0" index="0" allow="pedestrian" speed="2.78" length="21.20" width="2.00" shape="0.00,2390.40 0.00,2388.40 0.00,2411.60 0.00,2409.60"/>
    </edge>
    <edge id=":intersection_1_0_0" function="internal">
        <lane id=":intersection_1_0_0_0" index="0" disallow="pedestrian" speed="3.65" length="4.67" shape="398.40,0.00 399.20,-1.20 400.00,-1.60 400.80,-1.20 401.60,0.00"/>
    </edge>
    <edge id=":intersection_1_0_w0" function="walkingarea">
        <lane id=":intersection_1_0_w0_0" index="0" allow="pedestrian" speed="2.78" length="21.20" width="2.00" shape="409.60,0.00 411.60,0.00 388.40,0.00 390.40,0.00"/>
    </edge>
    <edge id=":intersection_1_1_0" function="internal">
        <lane id=":intersection_1_1_0_0" index="0" disallow="pedestrian" speed="6.51" length="4.75" shape="392.00,813.60 391.65,811.15 390.60,809.40 390.40,809.28"/>
        <lane id=":intersection_1_1_0_1" index="1" disallow="pedestrian" speed="7.33" length="7.08" shape="392.00,813.60 391.65,809.75 390.60,807.00 390.40,806.81"/>
        <lane id=":intersection_1_1_0_2" index="2" disallow="pedestrian" speed="8.10" length="9.48" shape="392.00,813.60 391.65,808.35 390.60,804.60 390.40,804.34"/>
    </edge>
    <edge id=":intersection_1_1_3" function="internal">
        <lane id=":intersection_1_1_3_0" index="0" disallow="pedestrian" speed="11.11" length="27.37" shape="395.20,813.60 394.70,805.50 393.60,800.00 392.50,794.50 392.00,786.40"/>
        <lane id=":intersection_1_1_3_1" index="1" disallow="pedestrian" speed="11.11" length="27.37" shape="395.20,813.60 395.20,786.40"/>
        <lane id=":intersection_1_1_3_2" index="2" disallow="pedestrian" speed="11.11" length="27.37" shape="395.20,813.60 395.70,805.50 396.80,800.00 397.90,794.50 398.40,786.40"/>
    </edge>
    <edge id=":intersection_1_1_6" function="internal">
        <lane id=":intersection_1_1_6_0" index="0" disallow="pedestrian" speed="11.11" length="25.77" shape="398.40,813.60 399.35,804.15 402.20,797.40 406.95,793.35 409.60,792.81"/>
        <lane id=":intersection_1_1_6_1" index="1" disallow="pedestrian" speed="10.88" length="23.08" shape="398.40,813.60 399.35,805.55 402.20,799.80 406.95,796.35 409.60,795.89"/>
        <lane id=":intersection_1_1_6_2" index="2" disallow="pedestrian" speed="10.36" length="20.47" shape="398.40,813.60 399.35,806.95 402.20,802.20 406.95,799.35 409.60,798.97"/>
    </edge>
    <edge id=":intersection_1_1_36" function="internal">
        <lane id=":intersection_1_1_36_0" index="0" disallow="pedestrian" speed="6.51" length="4.28" shape="390.40,809.28 388.85,808.35 386.40,808.00"/>
    </edge>
    <edge id=":intersection_1_1_37" function="internal">
        <lane id=":intersection_1_1_37_0" index="0" disallow="pedestrian" speed="7.33" length="4.64" shape="390.40,806.81 388.85,805.35 386.40,804.80"/>
    </edge>
    <edge id=":intersection_1_1_38" function="internal">
        <lane id=":intersection_1_1_38_0" index="0" disallow="pedestrian" speed="8.10" length="5.09" shape="390.40,804.34 388.85,802.35 386.40,801.60"/>
    </edge>
    <edge id=":intersection_1_1_39" function="internal">
        <lane id=":intersection_1_1_39_0" index="0" disallow="pedestrian" speed="11.11" length="4.08" shape="409.60,792.81 413.60,792.00"/>
    </edge>
    <edge id=":intersection_1_1_40" function="internal">
        <lane id=":intersection_1_1_40_0" index="0" disallow="pedestrian" speed="10.88" length="4.06" shape="409.60,795.89 413.60,795.20"/>
    </edge>
    <edge id=":intersection_1_1_41" function="internal">
        <lane id=":intersection_1_1_41_0" index="0" disallow="pedestrian" speed="10.36" length="4.04" shape="409.60,798.97 413.60,798.40"/>
    </edge>
    <edge id=":intersection_1_1_9" function="internal">
        <lane id=":intersection_1_1_9_0" index="0" disallow="pedestrian" speed="6.51" length="4.75" shape="413.60,808.00 411.15,808.35 409.40,809.40 409.28,809.60"/>
        <lane id=":intersection_1_1_9_1" index="1" disallow="pedestrian" speed="7.33" length="7.08" shape="413.60,808.00 409.75,808.35 407.00,809.40 406.81,809.60"/>
        <lane id=":intersection_1_1_9_2" index="2" disallow="pedestrian" speed="8.10" length="9.48" shape="413.60,808.00 408.35,808.35 404.60,809.40 404.34,809.60"/>
    </edge>
    <edge id=":intersection_1_1_12" function="internal">
        <lane id=":intersection_1_1_12_0" index="0" disallow="pedestrian" speed="11.11" length="27.37" shape="413.60,804.80 405.50,805.30 400.00,806.40 394.50,807.50 386.40,808.00"/>
        <lane id=":intersection_1_1_12_1" index="1" disallow="pedestrian" speed="11.11" length="27.37" shape="413.60,804.80 386.40,804.80"/>
        <lane id=":intersection_1_1_12_2" index="2" disallow="pedestrian" speed="11.11" length="27.37" shape="413.60,804.80 405.50,804.30 400.00,803.20 394.50,802.10 386.40,801.60"/>
    </edge>
    <edge id=":intersection_1_1_15" function="internal">
        <lane id=":intersection_1_1_15_0" index="0" disallow="pedestrian" speed="11.11" length="25.77" shape="413.60,801.60 404.15,800.65 397.40,797.80 393.35,793.05 392.81,790.40"/>
        <lane id=":intersection_1_1_15_1" index="1" disallow="pedestrian" speed="10.88" length="23.08" shape="413.60,801.60 405.55,800.65 399.80,797.80 396.35,793.05 395.89,790.40"/>
        <lane id=":intersection_1_1_15_2" index="2" disallow="pedestrian" speed="10.36" length="20.47" shape="413.60,801.60 406.95,800.65 402.20,797.80 399.35,793.05 398.97,790.40"/>
    </edge>
    <edge id=":intersection_1_1_42" function="internal">
        <lane id=":intersection_1_1_42_0" index="0" disallow="pedestrian" speed="6.51" length="4.28" shape="409.28,809.60 408.35,811.15 408.00,813.60"/>
    </edge>
    <edge id=":intersection_1_1_43" function="internal">
        <lane id=":intersection_1_1_43_0" index="0" disallow="pedestrian" speed="7.33" length="4.64" shape="406.81,809.60 405.35,811.15 404.80,813.60"/>
    </edge>
    <edge id=":intersection_1_1_44" function="internal">
        <lane id=":intersection_1_1_44_0" index="0" disallow="pedestrian" speed="8.10" length="5.09" shape="404.34,809.60 402.35,811.15 401.60,813.60"/>
    </edge>
    <edge id=":intersection_1_1_45" function="internal">
        <lane id=":intersection_1_1_45_0" index="0" disallow="pedestrian" speed="11.11" length="4.08" shape="392.81,790.40 392.00,786.40"/>
    </edge>
    <edge id=":intersection_1_1_46" function="internal">
        <lane id=":intersection_1_1_46_0" index="0" disallow="pedestrian" speed="10.88" length="4.06" shape="395.89,790.40 395.20,786.40"/>
    </edge>
    <edge id=":intersection_1_1_47" function="internal">
        <lane id=":intersection_1_1_47_0" index="0" disallow="pedestrian" speed="10.36" length="4.04" shape="398.97,790.40 398.40,786.40"/>
    </edge>
    <edge id=":intersection_1_1_18" function="internal">
        <lane id=":intersection_1_1_18_0" index="0" disallow="pedestrian" speed="6.51" length="4.75" shape="408.00,786.40 408.35,788.85 409.40,790.60 409.60,790.72"/>
        <lane id=":intersection_1_1_18_1" index="1" disallow="pedestrian" speed="7.33" length="7.08" shape="408.00,786.40 408.35,790.25 409.40,793.00 409.60,793.19"/>
        <lane id=":intersection_1_1_18_2" index="2" disallow="pedestrian" speed="8.10" length="9.48" shape="408.00,786.40 408.35,791.65 409.40,795.40 409.60,795.66"/>
    </edge>
    <edge id=":intersection_1_1_21" function="internal">
        <lane id=":intersection_1_1_21_0" index="0" disallow="pedestrian" speed="11.11" length="27.37" shape="404.80,786.40 405.30,794.50 406.40,800.00 407.50,805.50 408.00,813.60"/>
        <lane id=":intersection_1_1_21_1" index="1" disallow="pedestrian" speed="11.11" length="27.37" shape="404.80,786.40 404.80,813.60"/>
        <lane id=":intersection_1_1_21_2" index="2" disallow="pedestrian" speed="11.11" length="27.37" shape="404.80,786.40 404.30,794.50 403.20,800.00 402.10,805.50 401.60,813.60"/>
    </edge>
    <edge id=":intersection_1_1_24" function="internal">
        <lane id=":intersection_1_1_24_0" index="0" disallow="pedestrian" speed="11.11" length="25.77" shape="401.60,786.40 400.65,795.85 397.80,802.60 393.05,806.65 390.40,807.19"/>
        <lane id=":intersection_1_1_24_1" index="1" disallow="pedestrian" speed="10.88" length="23.08" shape="401.60,786.40 400.65,794.45 397.80,800.20 393.05,803.65 390.40,804.11"/>
        <lane id=":intersection_1_1_24_2" index="2" disallow="pedestrian" speed="10.36" length="20.47" shape="401.60,786.40 400.65,793.05 397.80,797.80 393.05,800.65 390.40,801.03"/>
    </edge>
    <edge id=":intersection_1_1_48" function="internal">
        <lane id=":intersection_1_1_48_0" index="0" disallow="pedestrian" speed="6.51" length="4.28" shape="409.60,790.72 411.15,791.65 413.60,792.00"/>
    </edge>
    <edge id=":intersection_1_1_49" function="internal">
        <lane id=":intersection_1_1_49_0" index="0" disallow="pedestrian" speed="7.33" length="4.64" shape="409.60,793.19 411.15,794.65 413.60,795.20"/>
    </edge>
    <edge id=":intersection_1_1_50" function="internal">
        <lane id=":intersection_1_1_50_0" index="0" disallow="pedestrian" speed="8.10" length="5.09" shape="409.60,795.66 411.15,797.65 413.60,798.40"/>
    </edge>
    <edge id=":intersection_1_1_51" function="internal">
        <lane id=":intersection_1_1_51_0" index="0" disallow="pedestrian" speed="11.11" length="4.08" shape="390.40,807.19 386.40,808.00"/>
    </edge>
    <edge id=":intersection_1_1_52" function="internal">
        <lane id=":intersection_1_1_52_0" index="0" disallow="pedestrian" speed="10.88" length="4.06" shape="390.40,804.11 386.40,804.80"/>
    </edge>
    <edge id=":intersection_1_1_53" function="internal">
        <lane id=":intersection_1_1_53_0" index="0" disallow="pedestrian" speed="10.36" length="4.04" shape="390.40,801.03 386.40,801.60"/>
    </edge>
    <edge id=":intersection_1_1_27" function="internal">
        <lane id=":intersection_1_1_27_0" index="0" disallow="pedestrian" speed="6.51" length="4.75" shape="386.40,792.00 388.85,791.65 390.60,790.60 390.72,790.40"/>
        <lane id=":intersection_1_1_27_1" index="1" disallow="pedestrian" speed="7.33" length="7.08" shape="386.40,792.00 390.25,791.65 393.00,790.60 393.19,790.40"/>
        <lane id=":intersection_1_1_27_2" index="2" disallow="pedestrian" speed="8.10" length="9.48" shape="386.40,792.00 391.65,791.65 395.40,790.60 395.66,790.40"/>
    </edge>
    <edge id=":intersection_1_1_30" function="internal">
        <lane id=":intersection_1_1_30_0" index="0" disallow="pedestrian" speed="11.11" length="27.37" shape="386.40,795.20 394.50,794.70 400.00,793.60 405.50,792.50 413.60,792.00"/>
        <lane id=":intersection_1_1_30_1" index="1" disallow="pedestrian" speed="11.11" length="27.37" shape="386.40,795.20 413.60,795.20"/>
        <lane id=":intersection_1_1_30_2" index="2" disallow="pedestrian" speed="11.11" length="27.37" shape="386.40,795.20 394.50,795.70 400.00,796.80 405.50,797.90 413.60,798.40"/>
    </edge>
    <edge id=":intersection_1_1_33" function="internal">
        <lane id=":intersection_1_1_33_0" index="0" disallow="pedestrian" speed="11.11" length="25.77" shape="386.40,798.40 395.85,799.35 402.60,802.20 406.65,806.95 407.19,809.60"/>
        <lane id=":intersection_1_1_33_1" index="1" disallow="pedestrian" speed="10.88" length="23.08" shape="386.40,798.40 394.45,799.35 400.20,802.20 403.65,806.95 404.11,809.60"/>
        <lane id=":intersection_1_1_33_2" index="2" disallow="pedestrian" speed="10.36" length="20.47" shape="386.40,798.40 393.05,799.35 397.80,802.20 400.65,806.95 401.03,809.60"/>
    </edge>
    <edge id=":intersection_1_1_54" function="internal">
        <lane id=":intersection_1_1_54_0" index="0" disallow="pedestrian" speed="6.51" length="4.28" shape="390.72,790.40 391.65,788.85 392.00,786.40"/>
    </edge>
    <edge id=":intersection_1_1_55" function="internal">
        <lane id=":intersection_1_1_55_0" index="0" disallow="pedestrian" speed="7.33" length="4.64" shape="393.19,790.40 394.65,788.85 395.20,786.40"/>
    </edge>
    <edge id=":intersection_1_1_56" function="internal">
        <lane id=":intersection_1_1_56_0" index="0" disallow="pedestrian" speed="8.10" length="5.09" shape="395.66,790.40 397.65,788.85 398.40,786.40"/>
    </edge>
    <edge id=":intersection_1_1_57" function="internal">
        <lane id=":intersection_1_1_57_0" index="0" disallow="pedestrian" speed="11.11" length="4.08" shape="407.19,809.60 408.00,813.60"/>
    </edge>
    <edge id=":intersection_1_1_58" function="internal">
        <lane id=":intersection_1_1_58_0" index="0" disallow="pedestrian" speed="10.88" length="4.06" shape="404.11,809.60 404.80,813.60"/>
    </edge>
    <edge id=":intersection_1_1_59" function="internal">
        <lane id=":intersection_1_1_59_0" index="0" disallow="pedestrian" speed="10.36" length="4.04" shape="401.03,809.60 401.60,813.60"/>
    </edge>
    <edge id=":intersection_1_1_c0" function="crossing" crossingEdges="road_1_1_1 road_1_2_3">
        <lane id=":intersection_1_1_c0_0" index="0" allow="pedestrian" speed="2.78" length="19.20" width="4.00" shape="409.60,811.60 390.40,811.60"/>
    </edge>
    <edge id=":intersection_1_1_c1" function="crossing" crossingEdges="road_1_1_0 road_2_1_2">
        <lane id=":intersection_1_1_c1_0" index="0" allow="pedestrian" speed="2.78" length="19.20" width="4.00" shape="411.60,790.40 411.60,809.60"/>
    </edge>
    <edge id=":intersection_1_1_c2" function="crossing" crossingEdges="road_1_1_3 road_1_0_1">
        <lane id=":intersection_1_1_c2_0" index="0" allow="pedestrian" speed="2.78" length="19.20" width="4.00" shape="390.40,788.40 409.60,788.40"/>
    </edge>
    <edge id=":intersection_1_1_c3" function="crossing" crossingEdges="road_1_1_2 road_0_1_0">
        <lane id=":intersection_1_1_c3_0" index="0" allow="pedestrian" speed="2.78" length="19.20" width="4.00" shape="388.40,809.60 388.40,790.40"/>
    </edge>
    <edge id=":intersection_1_1_w0" function="walkingarea">
        <lane id=":intersection_1_1_w0_0" index="0" allow="pedestrian" speed="2.78" length="3.30" width="4.00" shape="386.40,809.60 386.40,811.60 388.40,813.60 390.40,813.60 390.29,812.38 389.96,811.38 389.40,810.60 388.62,810.04 387.62,809.71"/>
    </edge>
    <edge id=":intersection_1_1_w1" function="walkingarea">
        <lane id=":intersection_1_1_w1_0" index="0" allow="pedestrian" speed="2.78" length="3.30" width="4.00" shape="409.60,813.60 411.60,813.60 413.60,811.60 413.60,809.60 412.38,809.71 411.38,810.04 410.60,810.60 410.04,811.38 409.71,812.38"/>
    </edge>
    <edge id=":intersection_1_1_w2" function="walkingarea">
        <lane id=":intersection_1_1_w2_0" index="0" allow="pedestrian" speed="2.78" length="3.30" width="4.00" shape="413.60,790.40 413.60,788.40 411.60,786.40 409.60,786.40 409.71,787.62 410.04,788.62 410.60,789.40 411.38,789.96 412.38,790.29"/>
    </edge>
    <edge id=":intersection_1_1_w3" function="walkingarea">
        <lane id=":intersection_1_1_w3_0" index="0" allow="pedestrian" speed="2.78" length="3.30" width="4.00" shape="390.40,786.40 388.40,786.40 386.40,788.40 386.40,790.40 387.62,790.29 388.62,789.96 389.40,789.40 389.96,788.62 390.29,787.62"/>
    </edge>
    <edge id=":intersection_1_2_0" function="internal">
        <lane id=":intersection_1_2_0_0" index="0" disallow="pedestrian" speed="6.51" length="4.75" shape="392.00,1613.60 391.65,1611.15 390.60,1609.40 390.40,1609.28"/>
        <lane id=":intersection_1_2_0_1" index="1" disallow="pedestrian" speed="7.33" length="7.08" shape="392.00,1613.60 391.65,1609.75 390.60,1607.00 390.40,1606.81"/>
        <lane id=":intersection_1_2_0_2" index="2" disallow="pedestrian" speed="8.10" length="9.48" shape="392.00,1613.60 391.65,1608.35 390.60,1604.60 390.40,1604.34"/>
    </edge>
    <edge id=":intersection_1_2_3" function="internal">
        <lane id=":intersection_1_2_3_0" index="0" disallow="pedestrian" speed="11.11" length="27.37" shape="395.20,1613.60 394.70,1605.50 393.60,1600.00 392.50,1594.50 392.00,1586.40"/>
        <lane id=":intersection_1_2_3_1" index="1" disallow="pedestrian" speed="11.11" length="27.37" shape="395.20,1613.60 395.20,1586.40"/>
        <lane id=":intersection_1_2_3_2" index="2" disallow="pedestrian" speed="11.11" length="27.37" shape="395.20,1613.60 395.70,1605.50 396.80,1600.00 397.90,1594.50 398.40,1586.40"/>
    </edge>
    <edge id=":intersection_1_2_6" function="internal">
        <lane id=":intersection_1_2_6_0" index="0" disallow="pedestrian" speed="11.11" length="25.77" shape="398.40,1613.60 399.35,1604.15 402.20,1597.40 406.95,1593.35 409.60,1592.81"/>
        <lane id=":intersection_1_2_6_1" index="1" disallow="pedestrian" speed="10.88" length="23.08" shape="398.40,1613.60 399.35,1605.55 402.20,1599.80 406.95,1596.35 409.60,1595.89"/>
        <lane id=":intersection_1_2_6_2" index="2" disallow="pedestrian" speed="10.36" length="20.47" shape="398.40,1613.60 399.35,1606.95 402.20,1602.20 406.95,1599.35 409.60,1598.97"/>
    </edge>
    <edge id=":intersection_1_2_36" function="internal">
        <lane id=":intersection_1_2_36_0" index="0" disallow="pedestrian" speed="6.51" length="4.28" shape="390.40,1609.28 388.85,1608.35 386.40,1608.00"/>
    </edge>
    <edge id=":intersection_1_2_37" function="internal">
        <lane id=":intersection_1_2_37_0" index="0" disallow="pedestrian" speed="7.33" length="4.64" shape="390.40,1606.81 388.85,1605.35 386.40,1604.80"/>
    </edge>
    <edge id=":intersection_1_2_38" function="internal">
        <lane id=":intersection_1_2_38_0" index="0" disallow="pedestrian" speed="8.10" length="5.09" shape="390.40,1604.34 388.85,1602.35 386.40,1601.60"/>
    </edge>
    <edge id=":intersection_1_2_39" function="internal">
        <lane id=":intersection_1_2_39_0" index="0" disallow="pedestrian" speed="11.11" length="4.08" shape="409.60,1592.81 413.60,1592.00"/>
    </edge>
    <edge id=":intersection_1_2_40" function="internal">
        <lane id=":intersection_1_2_40_0" index="0" disallow="pedestrian" speed="10.88" length="4.06" shape="409.60,1595.89 413.60,1595.20"/>
    </edge>
    <edge id=":intersection_1_2_41" function="internal">
        <lane id=":intersection_1_2_41_0" index="0" disallow="pedestrian" speed="10.36" length="4.04" shape="409.60,1598.97 413.60,1598.40"/>
    </edge>
    <edge id=":intersection_1_2_9" function="internal">
        <lane id=":intersection_1_2_9_0" index="0" disallow="pedestrian" speed="6.51" length="4.75" shape="413.60,1608.00 411.15,1608.35 409.40,1609.40 409.28,1609.60"/>
        <lane id=":intersection_1_2_9_1" index="1" disallow="pedestrian" speed="7.33" length="7.08" shape="413.60,1608.00 409.75,1608.35 407.00,1609.40 406.81,1609.60"/>
        <lane id=":intersection_1_2_9_2" index="2" disallow="pedestrian" speed="8.10" length="9.48" shape="413.60,1608.00 408.35,1608.35 404.60,1609.40 404.34,1609.60"/>
    </edge>
    <edge id=":intersection_1_2_12" function="internal">
        <lane id=":intersection_1_2_12_0" index="0" disallow="pedestrian" speed="11.11" length="27.37" shape="413.60,1604.80 405.50,1605.30 400.00,1606.40 394.50,1607.50 386.40,1608.00"/>
        <lane id=":intersection_1_2_12_1" index="1" disallow="pedestrian" speed="11.11" length="27.37" shape="413.60,1604.80 386.40,1604.80"/>
        <lane id=":intersection_1_2_12_2" index="2" disallow="pedestrian" speed="11.11" length="27.37" shape="413.60,1604.80 405.50,1604.30 400.00,1603.20 394.50,1602.10 386.40,1601.60"/>
    </edge>
    <edge id=":intersection_1_2_15" function="internal">
        <lane id=":intersection_1_2_15_0" index="0" disallow="pedestrian" speed="11.11" length="25.77" shape="413.60,1601.60 404.15,1600.65 397.40,1597.80 393.35,1593.05 392.81,1590.40"/>
        <lane id=":intersection_1_2_15_1" index="1" disallow="pedestrian" speed="10.88" length="23.08" shape="413.60,1601.60 405.55,1600.65 399.80,1597.80 396.35,1593.05 395.89,1590.40"/>
        <lane id=":intersection_1_2_15_2" index="2" disallow="pedestrian" speed="10.36" length="20.47" shape="413.60,1601.60 406.95,1600.65 402.20,1597.80 399.35,1593.05 398.97,1590.40"/>
    </edge>
    <edge id=":intersection_1_2_42" function="internal">
        <lane id=":intersection_1_2_42_0" index="0" disallow="pedestrian" speed="6.51" length="4.28" shape="409.28,1609.60 408.35,1611.15 408.00,1613.60"/>
    </edge>
    <edge id=":intersection_1_2_43" function="internal">
        <lane id=":intersection_1_2_43_0" index="0" disallow="pedestrian" speed="7.33" length="4.64" shape="406.81,1609.60 405.35,1611.15 404.80,1613.60"/>
    </edge>
    <edge id=":intersection_1_2_44" function="internal">
        <lane id=":intersection_1_2_44_0" index="0" disallow="pedestrian" speed="8.10" length="5.09" shape="404.34,1609.60 402.35,1611.15 401.60,1613.60"/>
    </edge>
    <edge id=":intersection_1_2_45" function="internal">
        <lane id=":intersection_1_2_45_0" index="0" disallow="pedestrian" speed="11.11" length="4.08" shape="392.81,1590.40 392.00,1586.40"/>
    </edge>
    <edge id=":intersection_1_2_46" function="internal">
        <lane id=":intersection_1_2_46_0" index="0" disallow="pedestrian" speed="10.88" length="4.06" shape="395.89,1590.40 395.20,1586.40"/>
    </edge>
    <edge id=":intersection_1_2_47" function="internal">
        <lane id=":intersection_1_2_47_0" index="0" disallow="pedestrian" speed="10.36" length="4.04" shape="398.97,1590.40 398.40,1586.40"/>
    </edge>
    <edge id=":intersection_1_2_18" function="internal">
        <lane id=":intersection_1_2_18_0" index="0" disallow="pedestrian" speed="6.51" length="4.75" shape="408.00,1586.40 408.35,1588.85 409.40,1590.60 409.60,1590.72"/>
        <lane id=":intersection_1_2_18_1" index="1" disallow="pedestrian" speed="7.33" length="7.08" shape="408.00,1586.40 408.35,1590.25 409.40,1593.00 409.60,1593.19"/>
        <lane id=":intersection_1_2_18_2" index="2" disallow="pedestrian" speed="8.10" length="9.48" shape="408.00,1586.40 408.35,1591.65 409.40,1595.40 409.60,1595.66"/>
    </edge>
    <edge id=":intersection_1_2_21" function="internal">
        <lane id=":intersection_1_2_21_0" index="0" disallow="pedestrian" speed="11.11" length="27.37" shape="404.80,1586.40 405.30,1594.50 406.40,1600.00 407.50,1605.50 408.00,1613.60"/>
        <lane id=":intersection_1_2_21_1" index="1" disallow="pedestrian" speed="11.11" length="27.37" shape="404.80,1586.40 404.80,1613.60"/>
        <lane id=":intersection_1_2_21_2" index="2" disallow="pedestrian" speed="11.11" length="27.37" shape="404.80,1586.40 404.30,1594.50 403.20,1600.00 402.10,1605.50 401.60,1613.60"/>
    </edge>
    <edge id=":intersection_1_2_24" function="internal">
        <lane id=":intersection_1_2_24_0" index="0" disallow="pedestrian" speed="11.11" length="25.77" shape="401.60,1586.40 400.65,1595.85 397.80,1602.60 393.05,1606.65 390.40,1607.19"/>
        <lane id=":intersection_1_2_24_1" index="1" disallow="pedestrian" speed="10.88" length="23.08" shape="401.60,1586.40 400.65,1594.45 397.80,1600.20 393.05,1603.65 390.40,1604.11"/>
        <lane id=":intersection_1_2_24_2" index="2" disallow="pedestrian" speed="10.36" length="20.47" shape="401.60,1586.40 400.65,1593.05 397.80,1597.80 393.05,1600.65 390.40,1601.03"/>
    </edge>
    <edge id=":intersection_1_2_48" function="internal">
        <lane id=":intersection_1_2_48_0" index="0" disallow="pedestrian" speed="6.51" length="4.28" shape="409.60,1590.72 411.15,1591.65 413.60,1592.00"/>
    </edge>
    <edge id=":intersection_1_2_49" function="internal">
        <lane id=":intersection_1_2_49_0" index="0" disallow="pedestrian" speed="7.33" length="4.64" shape="409.60,1593.19 411.15,1594.65 413.60,1595.20"/>
    </edge>
    <edge id=":intersection_1_2_50" function="internal">
        <lane id=":intersection_1_2_50_0" index="0" disallow="pedestrian" speed="8.10" length="5.09" shape="409.60,1595.66 411.15,1597.65 413.60,1598.40"/>
    </edge>
    <edge id=":intersection_1_2_51" function="internal">
        <lane id=":intersection_1_2_51_0" index="0" disallow="pedestrian" speed="11.11" length="4.08" shape="390.40,1607.19 386.40,1608.00"/>
    </edge>
    <edge id=":intersection_1_2_52" function="internal">
        <lane id=":intersection_1_2_52_0" index="0" disallow="pedestrian" speed="10.88" length="4.06" shape="390.40,1604.11 386.40,1604.80"/>
    </edge>
    <edge id=":intersection_1_2_53" function="internal">
        <lane id=":intersection_1_2_53_0" index="0" disallow="pedestrian" speed="10.36" length="4.04" shape="390.40,1601.03 386.40,1601.60"/>
    </edge>
    <edge id=":intersection_1_2_27" function="internal">
        <lane id=":intersection_1_2_27_0" index="0" disallow="pedestrian" speed="6.51" length="4.75" shape="386.40,1592.00 388.85,1591.65 390.60,1590.60 390.72,1590.40"/>
        <lane id=":intersection_1_2_27_1" index="1" disallow="pedestrian" speed="7.33" length="7.08" shape="386.40,1592.00 390.25,1591.65 393.00,1590.60 393.19,1590.40"/>
        <lane id=":intersection_1_2_27_2" index="2" disallow="pedestrian" speed="8.10" length="9.48" shape="386.40,1592.00 391.65,1591.65 395.40,1590.60 395.66,1590.40"/>
    </edge>
    <edge id=":intersection_1_2_30" function="internal">
        <lane id=":intersection_1_2_30_0" index="0" disallow="pedestrian" speed="11.11" length="27.37" shape="386.40,1595.20 394.50,1594.70 400.00,1593.60 405.50,1592.50 413.60,1592.00"/>
        <lane id=":intersection_1_2_30_1" index="1" disallow="pedestrian" speed="11.11" length="27.37" shape="386.40,1595.20 413.60,1595.20"/>
        <lane id=":intersection_1_2_30_2" index="2" disallow="pedestrian" speed="11.11" length="27.37" shape="386.40,1595.20 394.50,1595.70 400.00,1596.80 405.50,1597.90 413.60,1598.40"/>
    </edge>
    <edge id=":intersection_1_2_33" function="internal">
        <lane id=":intersection_1_2_33_0" index="0" disallow="pedestrian" speed="11.11" length="25.77" shape="386.40,1598.40 395.85,1599.35 402.60,1602.20 406.65,1606.95 407.19,1609.60"/>
        <lane id=":intersection_1_2_33_1" index="1" disallow="pedestrian" speed="10.88" length="23.08" shape="386.40,1598.40 394.45,1599.35 400.20,1602.20 403.65,1606.95 404.11,1609.60"/>
        <lane id=":intersection_1_2_33_2" index="2" disallow="pedestrian" speed="10.36" length="20.47" shape="386.40,1598.40 393.05,1599.35 397.80,1602.20 400.65,1606.95 401.03,1609.60"/>
    </edge>
    <edge id=":intersection_1_2_54" function="internal">
        <lane id=":intersection_1_2_54_0" index="0" disallow="pedestrian" speed="6.51" length="4.28" shape="390.72,1590.40 391.65,1588.85 392.00,1586.40"/>
    </edge>
    <edge id=":intersection_1_2_55" function="internal">
        <lane id=":intersection_1_2_55_0" index="0" disallow="pedestrian" speed="7.33" length="4.64" shape="393.19,1590.40 394.65,1588.85 395.20,1586.40"/>
    </edge>
    <edge id=":intersection_1_2_56" function="internal">
        <lane id=":intersection_1_2_56_0" index="0" disallow="pedestrian" speed="8.10" length="5.09" shape="395.66,1590.40 397.65,1588.85 398.40,1586.40"/>
    </edge>