<?xml version="1.0" ?>
<additional xmlns="http://sumo.dlr.de/xsd/additional_file.xsd">
    <laneAreaDetector file="e2output.xml" freq="60" friendlyPos="x" id="road_0_1_0_1" lane="road_0_1_0_1" length="100" pos="686.4"/>
    <laneAreaDetector file="e2output.xml" freq="60" friendlyPos="x" id="road_0_1_0_2" lane="road_0_1_0_2" length="100" pos="686.4"/>
    <laneAreaDetector file="e2output.xml" freq="60" friendlyPos="x" id="road_0_1_0_3" lane="road_0_1_0_3" length="100" pos="686.4"/>
    <laneAreaDetector file="e2output.xml" freq="60" friendlyPos="x" id="road_0_2_0_1" lane="road_0_2_0_1" length="100" pos="686.4"/>
    <laneAreaDetector file="e2output.xml" freq="60" friendlyPos="x" id="road_0_2_0_2" lane="road_0_2_0_2" length="100" pos="686.4"/>
    <laneAreaDetector file="e2output.xml" freq="60" friendlyPos="x" id="road_0_2_0_3" lane="road_0_2_0_3" length="100" pos="686.4"/>
    <laneAreaDetector file="e2output.xml" freq="60" friendlyPos="x" id="road_0_3_0_1" lane="road_0_3_0_1" length="100" pos="686.4"/>
    <laneAreaDetector file="e2output.xml" freq="60" friendlyPos="x" id="road_0_3_0_2" lane="road_0_3_0_2" length="100" pos="686.4"/>
    <laneAreaDetector file="e2output.xml" freq="60" friendlyPos="x" id="road_0_3_0_3" lane="road_0_3_0_3" length="100" pos="686.4"/>
    <laneAreaDetector file="e2output.xml" freq="60" friendlyPos="x" id="road_0_4_0_1" lane="road_0_4_0_1" length="100" pos="686.4"/>
    <laneAreaDetector file="e2output.xml" freq="60" friendlyPos="x" id="road_0_4_0_2" lane="road_0_4_0_2" length="100" pos="686.4"/>
    <laneAreaDetector file="e2output.xml" freq="60" friendlyPos="x" id="road_0_4_0_3" lane="road_0_4_0_3" length="100" pos="686.4"/>
    <laneAreaDetector file="e2output.xml" freq="60" friendlyPos="x" id="road_1_0_1_1" lane="road_1_0_1_1" length="100" pos="486.4"/>
    <laneAreaDetector file="e2output.xml" freq="60" friendlyPos="x" id="road_1_0_1_2" lane="road_1_0_1_2" length="100" pos="486.4"/>
    <laneAreaDetector file="e2output.xml" freq="60" friendlyPos="x" id="road_1_0_1_3" lane="road_1_0_1_3" length="100" pos="486.4"/>
    <laneAreaDetector file="e2output.xml" freq="60" friendlyPos="x" id="road_1_1_0_1" lane="road_1_1_0_1" length="100" pos="672.8"/>
    <laneAreaDetector file="e2output.xml" freq="60" friendlyPos="x" id="road_1_1_0_2" lane="road_1_1_0_2" length="100" pos="672.8"/>
    <laneAreaDetector file="e2output.xml" freq="60" friendlyPos="x" id="road_1_1_0_3" lane="road_1_1_0_3" length="100" pos="672.8"/>
    <laneAreaDetector file="e2output.xml" freq="60" friendlyPos="x" id="road_1_1_1_1" lane="road_1_1_1_1" length="100" pos="472.79999999999995"/>
    <laneAreaDetector file="e2output.xml" freq="60" friendlyPos="x" id="road_1_1_1_2" lane="road_1_1_1_2" length="100" pos="472.79999999999995"/>
    <laneAreaDetector file="e2output.xml" freq="60" friendlyPos="x" id="road_1_1_1_3" lane="road_1_1_1_3" length="100" pos="472.79999999999995"/>
    <laneAreaDetector file="e2output.xml" freq="60" friendlyPos="x" id="road_1_1_2_1" lane="road_1_1_2_1" length="100" pos="686.4"/>
    <laneAreaDetector file="e2output.xml" freq="60" friendlyPos="x" id="road_1_1_2_2" lane="road_1_1_2_2" length="100" pos="686.4"/>
    <laneAreaDetector file="e2output.xml" freq="60" friendlyPos="x" id="road_1_1_2_3" lane="road_1_1_2_3" length="100" pos="686.4"/>
    <laneAreaDetector file="e2output.xml" freq="60" friendlyPos="x" id="road_1_1_3_1" lane="road_1_1_3_1" length="100" pos="486.4"/>
    <laneAreaDetector file="e2output.xml" freq="60" friendlyPos="x" id="road_1_1_3_2" lane="road_1_1_3_2" length="100" pos="486.4"/>
    <laneAreaDetector file="e2output.xml" freq="60" friendlyPos="x" id="road_1_1_3_3" lane="road_1_1_3_3" length="100" pos="486.4"/>
    <laneAreaDetector file="e2output.xml" freq="60" friendlyPos="x" id="road_1_2_0_1" lane="road_1_2_0_1" length="100" pos="672.8"/>
    <laneAreaDetector file="e2output.xml" freq="60" friendlyPos="x" id="road_1_2_0_2" lane="road_1_2_0_2" length="100" pos="672.8"/>
    <laneAreaDetector file="e2output.xml" freq="60" friendlyPos="x" id="road_1_2_0_3" lane="road_1_2_0_3" length="100" pos="672.8"/>
    <laneAreaDetector file="e2output.xml" freq="60" friendlyPos="x" id="road_1_2_1_1" lane="road_1_2_1_1" length="100" pos="472.79999999999995"/>
    <laneAreaDetector file="e2output.xml" freq="60" friendlyPos="x" id="road_1_2_1_2" lane="road_1_2_1_2" length="100" pos="472.79999999999995"/>
    <laneAreaDetector file="e2output.xml" freq="60" friendlyPos="x" id="road_1_2_1_3" lane="road_1_2_1_3" length="100" pos="472.79999999999995"/>
    <laneAreaDetector file="e2output.xml" freq="60" friendlyPos="x" id="road_1_2_2_1" lane="road_1_2_2_1" length="100" pos="686.4"/>
    <laneAreaDetector file="e2output.xml" freq="60" friendlyPos="x" id="road_1_2_2_2" lane="road_1_2_2_2" length="100" pos="686.4"/>
    <laneAreaDetector file="e2output.xml" freq="60" friendlyPos="x" id="road_1_2_2_3" lane="road_1_2_2_3" length="100" pos="686.4"/>
    <laneAreaDetector file="e2output.xml" freq="60" friendlyPos="x" id="road_1_2_3_1" lane="road_1_2_3_1" length="100" pos="472.79999999999995"/>
    <laneAreaDetector file="e2output.xml" freq="60" friendlyPos="x" id="road_1_2_3_2" lane="road_1_2_3_2" length="100" pos="472.79999999999995"/>
    <laneAreaDetector file="e2output.xml" freq="60" friendlyPos="x" id="road_1_2_3_3" lane="road_1_2_3_3" length="100" pos="472.79999999999995"/>
    <laneAreaDetector file="e2output.xml" freq="60" friendlyPos="x" id="road_1_3_0_1" lane="road_1_3_0_1" length="100" pos="672.8"/>
    <laneAreaDetector file="e2output.xml" freq="60" friendlyPos="x" id="road_1_3_0_2" lane="road_1_3_0_2" length="100" pos="672.8"/>
    <laneAreaDetector file="e2output.xml" freq="60" friendlyPos="x" id="road_1_3_0_3" lane="road_1_3_0_3" length="100" pos="672.8"/>
    <laneAreaDetector file="e2output.xml" freq="60" friendlyPos="x" id="road_1_3_1_1" lane="road_1_3_1_1" length="100" pos="472.79999999999995"/>
    <laneAreaDetector file="e2output.xml" freq="60" friendlyPos="x" id="road_1_3_1_2" lane="road_1_3_1_2" length="100" pos="472.79999999999995"/>
    <laneAreaDetector file="e2output.xml" freq="60" friendlyPos="x" id="road_1_3_1_3" lane="road_1_3_1_3" length="100" pos="472.79999999999995"/>
    <laneAreaDetector file="e2output.xml" freq="60" friendlyPos="x" id="road_1_3_2_1" lane="road_1_3_2_1" length="100" pos="686.4"/>
    <laneAreaDetector file="e2output.xml" freq="60" friendlyPos="x" id="road_1_3_2_2" lane="road_1_3_2_2" length="100" pos="686.4"/>
    <laneAreaDetector file="e2output.xml" freq="60" friendlyPos="x" id="road_1_3_2_3" lane="road_1_3_2_3" length="100" pos="686.4"/>
    <laneAreaDetector file="e2output.xml" freq="60" friendlyPos="x" id="road_1_3_3_1" lane="road_1_3_3_1" length="100" pos="472.79999999999995"/>
    <laneAreaDetector file="e2output.xml" freq="60" friendlyPos="x" id="road_1_3_3_2" lane="road_1_3_3_2" length="100" pos="472.79999999999995"/>
    <laneAreaDetector file="e2output.xml" freq="60" friendlyPos="x" id="road_1_3_3_3" lane="road_1_3_3_3" length="100" pos="472.79999999999995"/>
    <laneAreaDetector file="e2output.xml" freq="60" friendlyPos="x" id="road_1_4_0_1" lane="road_1_4_0_1" length="100" pos="672.8"/>
    <laneAreaDetector file="e2output.xml" freq="60" friendlyPos="x" id="road_1_4_0_2" lane="road_1_4_0_2" length="100" pos="672.8"/>
    <laneAreaDetector file="e2output.xml" freq="60" friendlyPos="x" id="road_1_4_0_3" lane="road_1_4_0_3" length="100" pos="672.8"/>
    <laneAreaDetector file="e2output.xml" freq="60" friendlyPos="x" id="road_1_4_1_1" lane="road_1_4_1_1" length="100" pos="486.4"/>
    <laneAreaDetector file="e2output.xml" freq="60" friendlyPos="x" id="road_1_4_1_2" lane="road_1_4_1_2" length="100" pos="486.4"/>
    <laneAreaDetector file="e2output.xml" freq="60" friendlyPos="x" id="road_1_4_1_3" lane="road_1_4_1_3" length="100" pos="486.4"/>
    <laneAreaDetector file="e2output.xml" freq="60" friendlyPos="x" id="road_1_4_2_1" lane="road_1_4_2_1" length="100" pos="686.4"/>
    <laneAreaDetector file="e2output.xml" freq="60" friendlyPos="x" id="road_1_4_2_2" lane="road_1_4_2_2" length="100" pos="686.4"/>
    <laneAreaDetector file="e2output.xml" freq="60" friendlyPos="x" id="road_1_4_2_3" lane="road_1_4_2_3" length="100" pos="686.4"/>
    <laneAreaDetector file="e2output.xml" freq="60" friendlyPos="x" id="road_1_4_3_1" lane="road_1_4_3_1" length="100" pos="472.79999999999995"/>
    <laneAreaDetector file="e2output.xml" freq="60" friendlyPos="x" id="road_1_4_3_2" lane="road_1_4_3_2" length="100" pos="472.79999999999995"/>
    <laneAreaDetector file="e2output.xml" freq="60" friendlyPos="x" id="road_1_4_3_3" lane="road_1_4_3_3" length="100" pos="472.79999999999995"/>
    <laneAreaDetector file="e2output.xml" freq="60" friendlyPos="x" id="road_1_5_3_1" lane="road_1_5_3_1" length="100" pos="486.4"/>
    <laneAreaDetector file="e2output.xml" freq="60" friendlyPos="x" id="road_1_5_3_2" lane="road_1_5_3_2" length="100" pos="486.4"/>
    <laneAreaDetector file="e2output.xml" freq="60" friendlyPos="x" id="road_1_5_3_3" lane="road_1_5_3_3" length="100" pos="486.4"/>
    <laneAreaDetector file="e2output.xml" freq="60" friendlyPos="x" id="road_2_0_1_1" lane="road_2_0_1_1" length="100" pos="486.4"/>
    <laneAreaDetector file="e2output.xml" freq="60" friendlyPos="x" id="road_2_0_1_2" lane="road_2_0_1_2" length="100" pos="486.4"/>
    <laneAreaDetector file="e2output.xml" freq="60" friendlyPos="x" id="road_2_0_1_3" lane="road_2_0_1_3" length="100" pos="486.4"/>
    <laneAreaDetector file="e2output.xml" freq="60" friendlyPos="x" id="road_2_1_0_1" lane="road_2_1_0_1" length="100" pos="672.8"/>
    <laneAreaDetector file="e2output.xml" freq="60" friendlyPos="x" id="road_2_1_0_2" lane="road_2_1_0_2" length="100" pos="672.8"/>
    <laneAreaDetector file="e2output.xml" freq="60" friendlyPos="x" id="road_2_1_0_3" lane="road_2_1_0_3" length="100" pos="672.8"/>
    <laneAreaDetector file="e2output.xml" freq="60" friendlyPos="x" id="road_2_1_1_1" lane="road_2_1_1_1" length="100" pos="472.79999999999995"/>
    <laneAreaDetector file="e2output.xml" freq="60" friendlyPos="x" id="road_2_1_1_2" lane="road_2_1_1_2" length="100" pos="472.79999999999995"/>
    <laneAreaDetector file="e2output.xml" freq="60" friendlyPos="x" id="road_2_1_1_3" lane="road_2_1_1_3" length="100" pos="472.79999999999995"/>
    <laneAreaDetector file="e2output.xml" freq="60" friendlyPos="x" id="road_2_1_2_1" lane="road_2_1_2_1" length="100" pos="672.8"/>
    <laneAreaDetector file="e2output.xml" freq="60" friendlyPos="x" id="road_2_1_2_2" lane="road_2_1_2_2" length="100" pos="672.8"/>
    <laneAreaDetector file="e2output.xml" freq="60" friendlyPos="x" id="road_2_1_2_3" lane="road_2_1_2_3" length="100" pos="672.8"/>
    <laneAreaDetector file="e2output.xml" freq="60" friendlyPos="x" id="road_2_1_3_1" lane="road_2_1_3_1" length="100" pos="486.4"/>
    <laneAreaDetector file="e2output.xml" freq="60" friendlyPos="x" id="road_2_1_3_2" lane="road_2_1_3_2" length="100" pos="486.4"/>
    <laneAreaDetector file="e2output.xml" freq="60" friendlyPos="x" id="road_2_1_3_3" lane="road_2_1_3_3" length="100" pos="486.4"/>
    <laneAreaDetector file="e2output.xml" freq="60" friendlyPos="x" id="road_2_2_0_1" lane="road_2_2_0_1" length="100" pos="672.8"/>
    <laneAreaDetector file="e2output.xml" freq="60" friendlyPos="x" id="road_2_2_0_2" lane="road_2_2_0_2" length="100" pos="672.8"/>
    <laneAreaDetector file="e2output.xml" freq="60" friendlyPos="x" id="road_2_2_0_3" lane="road_2_2_0_3" length="100" pos="672.8"/>
    <laneAreaDetector file="e2output.xml" freq="60" friendlyPos="x" id="road_2_2_1_1" lane="road_2_2_1_1" length="100" pos="472.79999999999995"/>
    <laneAreaDetector file="e2output.xml" freq="60" friendlyPos="x" id="road_2_2_1_2" lane="road_2_2_1_2" length="100" pos="472.79999999999995"/>
    <laneAreaDetector file="e2output.xml" freq="60" friendlyPos="x" id="road_2_2_1_3" lane="road_2_2_1_3" length="100" pos="472.79999999999995"/>
    <laneAreaDetector file="e2output.xml" freq="60" friendlyPos="x" id="road_2_2_2_1" lane="road_2_2_2_1" length="100" pos="672.8"/>
    <laneAreaDetector file="e2output.xml" freq="60" friendlyPos="x" id="road_2_2_2_2" lane="road_2_2_2_2" length="100" pos="672.8"/>
    <laneAreaDetector file="e2output.xml" freq="60" friendlyPos="x" id="road_2_2_2_3" lane="road_2_2_2_3" length="100" pos="672.8"/>
    <laneAreaDetector file="e2output.xml" freq="60" friendlyPos="x" id="road_2_2_3_1" lane="road_2_2_3_1" length="100" pos="472.79999999999995"/>
    <laneAreaDetector file="e2output.xml" freq="60" friendlyPos="x" id="road_2_2_3_2" lane="road_2_2_3_2" length="100" pos="472.79999999999995"/>
    <laneAreaDetector file="e2output.xml" freq="60" friendlyPos="x" id="road_2_2_3_3" lane="road_2_2_3_3" length="100" pos="472.79999999999995"/>
    <laneAreaDetector file="e2output.xml" freq="60" friendlyPos="x" id="road_2_3_0_1" lane="road_2_3_0_1" length="100" pos="672.8"/>
    <laneAreaDetector file="e2output.xml" freq="60" friendlyPos="x" id="road_2_3_0_2" lane="road_2_3_0_2" length="100" pos="672.8"/>
    <laneAreaDetector file="e2output.xml" freq="60" friendlyPos="x" id="road_2_3_0_3" lane="road_2_3_0_3" length="100" pos="672.8"/>
    <laneAreaDetector file="e2output.xml" freq="60" friendlyPos="x" id="road_2_3_1_1" lane="road_2_3_1_1" length="100" pos="472.79999999999995"/>
    <laneAreaDetector file="e2output.xml" freq="60" friendlyPos="x" id="road_2_3_1_2" lane="road_2_3_1_2" length="100" pos="472.79999999999995"/>
    <laneAreaDetector file="e2output.xml" freq="60" friendlyPos="x" id="road_2_3_1_3" lane="road_2_3_1_3" length="100" pos="472.79999999999995"/>
    <laneAreaDetector file="e2output.xml" freq="60" friendlyPos="x" id="road_2_3_2_1" lane="road_2_3_2_1" length="100" pos="672.8"/>
    <laneAreaDetector file="e2output.xml" freq="60" friendlyPos="x" id="road_2_3_2_2" lane="road_2_3_2_2" length="100" pos="672.8"/>
    <laneAreaDetector file="e2output.xml" freq="60" friendlyPos="x" id="road_2_3_2_3" lane="road_2_3_2_3" length="100" pos="672.8"/>
    <laneAreaDetector file="e2output.xml" freq="60" friendlyPos="x" id="road_2_3_3_1" lane="road_2_3_3_1" length="100" pos="472.79999999999995"/>
    <laneAreaDetector file="e2output.xml" freq="60" friendlyPos="x" id="road_2_3_3_2" lane="road_2_3_3_2" length="100" pos="472.79999999999995"/>
    <laneAreaDetector file="e2output.xml" freq="60" friendlyPos="x" id="road_2_3_3_3" lane="road_2_3_3_3" length="100" pos="472.79999999999995"/>
    <laneAreaDetector file="e2output.xml" freq="60" friendlyPos="x" id="road_2_4_0_1" lane="road_2_4_0_1" length="100" pos="672.8"/>
    <laneAreaDetector file="e2output.xml" freq="60" friendlyPos="x" id="road_2_4_0_2" lane="road_2_4_0_2" length="100" pos="672.8"/>
    <laneAreaDetector file="e2output.xml" freq="60" friendlyPos="x" id="road_2_4_0_3" lane="road_2_4_0_3" length="100" pos="672.8"/>
    <laneAreaDetector file="e2output.xml" freq="60" friendlyPos="x" id="road_2_4_1_1" lane="road_2_4_1_1" length="100" pos="486.4"/>
    <laneAreaDetector file="e2output.xml" freq="60" friendlyPos="x" id="road_2_4_1_2" lane="road_2_4_1_2" length="100" pos="486.4"/>
    <laneAreaDetector file="e2output.xml" freq="60" friendlyPos="x" id="road_2_4_1_3" lane="road_2_4_1_3" length="100" pos="486.4"/>
    <laneAreaDetector file="e2output.xml" freq="60" friendlyPos="x" id="road_2_4_2_1" lane="road_2_4_2_1" length="100" pos="672.8"/>
    <laneAreaDetector file="e2output.xml" freq="60" friendlyPos="x" id="road_2_4_2_2" lane="road_2_4_2_2" length="100" pos="672.8"/>
    <laneAreaDetector file="e2output.xml" freq="60" friendlyPos="x" id="road_2_4_2_3" lane="road_2_4_2_3" length="100" pos="672.8"/>
    <laneAreaDetector file="e2output.xml" freq="60" friendlyPos="x" id="road_2_4_3_1" lane="road_2_4_3_1" length="100" pos="472.79999999999995"/>
    <laneAreaDetector file="e2output.xml" freq="60" friendlyPos="x" id="road_2_4_3_2" lane="road_2_4_3_2" length="100" pos="472.79999999999995"/>
    <laneAreaDetector file="e2output.xml" freq="60" friendlyPos="x" id="road_2_4_3_3" lane="road_2_4_3_3" length="100" pos="472.79999999999995"/>
    <laneAreaDetector file="e2output.xml" freq="60" friendlyPos="x" id="road_2_5_3_1" lane="road_2_5_3_1" length="100" pos="486.4"/>
    <laneAreaDetector file="e2output.xml" freq="60" friendlyPos="x" id="road_2_5_3_2" lane="road_2_5_3_2" length="100" pos="486.4"/>
    <laneAreaDetector file="e2output.xml" freq="60" friendlyPos="x" id="road_2_5_3_3" lane="road_2_5_3_3" length="100" pos="486.4"/>
    <laneAreaDetector file="e2output.xml" freq="60" friendlyPos="x" id="road_3_0_1_1" lane="road_3_0_1_1" length="100" pos="486.4"/>
    <laneAreaDetector file="e2output.xml" freq="60" friendlyPos="x" id="road_3_0_1_2" lane="road_3_0_1_2" length="100" pos="486.4"/>
    <laneAreaDetector file="e2output.xml" freq="60" friendlyPos="x" id="road_3_0_1_3" lane="road_3_0_1_3" length="100" pos="486.4"/>
    <laneAreaDetector file="e2output.xml" freq="60" friendlyPos="x" id="road_3_1_0_1" lane="road_3_1_0_1" length="100" pos="672.8"/>
    <laneAreaDetector file="e2output.xml" freq="60" friendlyPos="x" id="road_3_1_0_2" lane="road_3_1_0_2" length="100" pos="672.8"/>
    <laneAreaDetector file="e2output.xml" freq="60" friendlyPos="x" id="road_3_1_0_3" lane="road_3_1_0_3" length="100" pos="672.8"/>
    <laneAreaDetector file="e2output.xml" freq="60" friendlyPos="x" id="road_3_1_1_1" lane="road_3_1_1_1" length="100" pos="472.79999999999995"/>
    <laneAreaDetector file="e2output.xml" freq="60" friendlyPos="x" id="road_3_1_1_2" lane="road_3_1_1_2" length="100" pos="472.79999999999995"/>
    <laneAreaDetector file="e2output.xml" freq="60" friendlyPos="x" id="road_3_1_1_3" lane="road_3_1_1_3" length="100" pos="472.79999999999995"/>
    <laneAreaDetector file="e2output.xml" freq="60" friendlyPos="x" id="road_3_1_2_1" lane="road_3_1_2_1" length="100" pos="672.8"/>
    <laneAreaDetector file="e2output.xml" freq="60" friendlyPos="x" id="road_3_1_2_2" lane="road_3_1_2_2" length="100" pos="672.8"/>
    <laneAreaDetector file="e2output.xml" freq="60" friendlyPos="x" id="road_3_1_2_3" lane="road_3_1_2_3" length="100" pos="672.8"/>
    <laneAreaDetector file="e2output.xml" freq="60" friendlyPos="x" id="road_3_1_3_1" lane="road_3_1_3_1" length="100" pos="486.4"/>
    <laneAreaDetector file="e2output.xml" freq="60" friendlyPos="x" id="road_3_1_3_2" lane="road_3_1_3_2" length="100" pos="486.4"/>
    <laneAreaDetector file="e2output.xml" freq="60" friendlyPos="x" id="road_3_1_3_3" lane="road_3_1_3_3" length="100" pos="486.4"/>
    <laneAreaDetector file="e2output.xml" freq="60" friendlyPos="x" id="road_3_2_0_1" lane="road_3_2_0_1" length="100" pos="672.8"/>
    <laneAreaDetector file="e2output.xml" freq="60" friendlyPos="x" id="road_3_2_0_2" lane="road_3_2_0_2" length="100" pos="672.8"/>
    <laneAreaDetector file="e2output.xml" freq="60" friendlyPos="x" id="road_3_2_0_3" lane="road_3_2_0_3" length="100" pos="672.8"/>
    <laneAreaDetector file="e2output.xml" freq="60" friendlyPos="x" id="road_3_2_1_1" lane="road_3_2_1_1" length="100" pos="472.79999999999995"/>
    <laneAreaDetector file="e2output.xml" freq="60" friendlyPos="x" id="road_3_2_1_2" lane="road_3_2_1_2" length="100" pos="472.79999999999995"/>
    <laneAreaDetector file="e2output.xml" freq="60" friendlyPos="x" id="road_3_2_1_3" lane="road_3_2_1_3" length="100" pos="472.79999999999995"/>
    <laneAreaDetector file="e2output.xml" freq="60" friendlyPos="x" id="road_3_2_2_1" lane="road_3_2_2_1" length="100" pos="672.8"/>
    <laneAreaDetector file="e2output.xml" freq="60" friendlyPos="x" id="road_3_2_2_2" lane="road_3_2_2_2" length="100" pos="672.8"/>
    <laneAreaDetector file="e2output.xml" freq="60" friendlyPos="x" id="road_3_2_2_3" lane="road_3_2_2_3" length="100" pos="672.8"/>
    <laneAreaDetector file="e2output.xml" freq="60" friendlyPos="x" id="road_3_2_3_1" lane="road_3_2_3_1" length="100" pos="472.79999999999995"/>
    <laneAreaDetector file="e2output.xml" freq="60" friendlyPos="x" id="road_3_2_3_2" lane="road_3_2_3_2" length="100" pos="472.79999999999995"/>
    <laneAreaDetector file="e2output.xml" freq="60" friendlyPos="x" id="road_3_2_3_3" lane="road_3_2_3_3" length="100" pos="472.79999999999995"/>
    <laneAreaDetector file="e2output.xml" freq="60" friendlyPos="x" id="road_3_3_0_1" lane="road_3_3_0_1" length="100" pos="672.8"/>
    <laneAreaDetector file="e2output.xml" freq="60" friendlyPos="x" id="road_3_3_0_2" lane="road_3_3_0_2" length="100" pos="672.8"/>
    <laneAreaDetector file="e2output.xml" freq="60" friendlyPos="x" id="road_3_3_0_3" lane="road_3_3_0_3" length="100" pos="672.8"/>
    <laneAreaDetector file="e2output.xml" freq="60" friendlyPos="x" id="road_3_3_1_1" lane="road_3_3_1_1" length="100" pos="472.79999999999995"/>
    <laneAreaDetector file="e2output.xml" freq="60" friendlyPos="x" id="road_3_3_1_2" lane="road_3_3_1_2" length="100" pos="472.79999999999995"/>
    <laneAreaDetector file="e2output.xml" freq="60" friendlyPos="x" id="road_3_3_1_3" lane="road_3_3_1_3" length="100" pos="472.79999999999995"/>
    <laneAreaDetector file="e2output.xml" freq="60" friendlyPos="x" id="road_3_3_2_1" lane="road_3_3_2_1" length="100" pos="672.8"/>
    <laneAreaDetector file="e2output.xml" freq="60" friendlyPos="x" id="road_3_3_2_2" lane="road_3_3_2_2" length="100" pos="672.8"/>
    <laneAreaDetector file="e2output.xml" freq="60" friendlyPos="x" id="road_3_3_2_3" lane="road_3_3_2_3" length="100" pos="672.8"/>
    <laneAreaDetector file="e2output.xml" freq="60" friendlyPos="x" id="road_3_3_3_1" lane="road_3_3_3_1" length="100" pos="472.79999999999995"/>
    <laneAreaDetector file="e2output.xml" freq="60" friendlyPos="x" id="road_3_3_3_2" lane="road_3_3_3_2" length="100" pos="472.79999999999995"/>
    <laneAreaDetector file="e2output.xml" freq="60" friendlyPos="x" id="road_3_3_3_3" lane="road_3_3_3_3" length="100" pos="472.79999999999995"/>
    <laneAreaDetector file="e2output.xml" freq="60" friendlyPos="x" id="road_3_4_0_1" lane="road_3_4_0_1" length="100" pos="672.8"/>
    <laneAreaDetector file="e2output.xml" freq="60" friendlyPos="x" id="road_3_4_0_2" lane="road_3_4_0_2" length="100" pos="672.8"/>
    <laneAreaDetector file="e2output.xml" freq="60" friendlyPos="x" id="road_3_4_0_3" lane="road_3_4_0_3" length="100" pos="672.8"/>
    <laneAreaDetector file="e2output.xml" freq="60" friendlyPos="x" id="road_3_4_1_1" lane="road_3_4_1_1" length="100" pos="486.4"/>
    <laneAreaDetector file="e2output.xml" freq="60" friendlyPos="x" id="road_3_4_1_2" lane="road_3_4_1_2" length="100" pos="486.4"/>
    <laneAreaDetector file="e2output.xml" freq="60" friendlyPos="x" id="road_3_4_1_3" lane="road_3_4_1_3" length="100" pos="486.4"/>
    <laneAreaDetector file="e2output.xml" freq="60" friendlyPos="x" id="road_3_4_2_1" lane="road_3_4_2_1" length="100" pos="672.8"/>
    <laneAreaDetector file="e2output.xml" freq="60" friendlyPos="x" id="road_3_4_2_2" lane="road_3_4_2_2" length="100" pos="672.8"/>
    <laneAreaDetector file="e2output.xml" freq="60" friendlyPos="x" id="road_3_4_2_3" lane="road_3_4_2_3" length="100" pos="672.8"/>
    <laneAreaDetector file="e2output.xml" freq="60" friendlyPos="x" id="road_3_4_3_1" lane="road_3_4_3_1" length="100" pos="472.79999999999995"/>
    <laneAreaDetector file="e2output.xml" freq="60" friendlyPos="x" id="road_3_4_3_2" lane="road_3_4_3_2" length="100" pos="472.79999999999995"/>
    <laneAreaDetector file="e2output.xml" freq="60" friendlyPos="x" id="road_3_4_3_3" lane="road_3_4_3_3" length="100" pos="472.79999999999995"/>
    <laneAreaDetector file="e2output.xml" freq="60" friendlyPos="x" id="road_3_5_3_1" lane="road_3_5_3_1" length="100" pos="486.4"/>
    <laneAreaDetector file="e2output.xml" freq="60" friendlyPos="x" id="road_3_5_3_2" lane="road_3_5_3_2" length="100" pos="486.4"/>
    <laneAreaDetector file="e2output.xml" freq="60" friendlyPos="x" id="road_3_5_3_3" lane="road_3_5_3_3" length="100" pos="486.4"/>
    <laneAreaDetector file="e2output.xml" freq="60" friendlyPos="x" id="road_4_0_1_1" lane="road_4_0_1_1" length="100" pos="486.4"/>
    <laneAreaDetector file="e2output.xml" freq="60" friendlyPos="x" id="road_4_0_1_2" lane="road_4_0_1_2" length="100" pos="486.4"/>
    <laneAreaDetector file="e2output.xml" freq="60" friendlyPos="x" id="road_4_0_1_3" lane="road_4_0_1_3" length="100" pos="486.4"/>
    <laneAreaDetector file="e2output.xml" freq="60" friendlyPos="x" id="road_4_1_0_1" lane="road_4_1_0_1" length="100" pos="686.4"/>
    <laneAreaDetector file="e2output.xml" freq="60" friendlyPos="x" id="road_4_1_0_2" lane="road_4_1_0_2" length="100" pos="686.4"/>
    <laneAreaDetector file="e2output.xml" freq="60" friendlyPos="x" id="road_4_1_0_3" lane="road_4_1_0_3" length="100" pos="686.4"/>
    <laneAreaDetector file="e2output.xml" freq="60" friendlyPos="x" id="road_4_1_1_1" lane="road_4_1_1_1" length="100" pos="472.79999999999995"/>
    <laneAreaDetector file="e2output.xml" freq="60" friendlyPos="x" id="road_4_1_1_2" lane="road_4_1_1_2" length="100" pos="472.79999999999995"/>
    <laneAreaDetector file="e2output.xml" freq="60" friendlyPos="x" id="road_4_1_1_3" lane="road_4_1_1_3" length="100" pos="472.79999999999995"/>
    <laneAreaDetector file="e2output.xml" freq="60" friendlyPos="x" id="road_4_1_2_1" lane="road_4_1_2_1" length="100" pos="672.8"/>
    <laneAreaDetector file="e2output.xml" freq="60" friendlyPos="x" id="road_4_1_2_2" lane="road_4_1_2_2" length="100" pos="672.8"/>
    <laneAreaDetector file="e2output.xml" freq="60" friendlyPos="x" id="road_4_1_2_3" lane="road_4_1_2_3" length="100" pos="672.8"/>
    <laneAreaDetector file="e2output.xml" freq="60" friendlyPos="x" id="road_4_1_3_1" lane="road_4_1_3_1" length="100" pos="486.4"/>
    <laneAreaDetector file="e2output.xml" freq="60" friendlyPos="x" id="road_4_1_3_2" lane="road_4_1_3_2" length="100" pos="486.4"/>
    <laneAreaDetector file="e2output.xml" freq="60" friendlyPos="x" id="road_4_1_3_3" lane="road_4_1_3_3" length="100" pos="486.4"/>
    <laneAreaDetector file="e2output.xml" freq="60" friendlyPos="x" id="road_4_2_0_1" lane="road_4_2_0_1" length="100" pos="686.4"/>
    <laneAreaDetector file="e2output.xml" freq="60" friendlyPos="x" id="road_4_2_0_2" lane="road_4_2_0_2" length="100" pos="686.4"/>
    <laneAreaDetector file="e2output.xml" freq="60" friendlyPos="x" id="road_4_2_0_3" lane="road_4_2_0_3" length="100" pos="686.4"/>
    <laneAreaDetector file="e2output.xml" freq="60" friendlyPos="x" id="road_4_2_1_1" lane="road_4_2_1_1" length="100" pos="472.79999999999995"/>
    <laneAreaDetector file="e2output.xml" freq="60" friendlyPos="x" id="road_4_2_1_2" lane="road_4_2_1_2" length="100" pos="472.79999999999995"/>
    <laneAreaDetector file="e2output.xml" freq="60" friendlyPos="x" id="road_4_2_1_3" lane="road_4_2_1_3" length="100" pos="472.79999999999995"/>
    <laneAreaDetector file="e2output.xml" freq="60" friendlyPos="x" id="road_4_2_2_1" lane="road_4_2_2_1" length="100" pos="672.8"/>
    <laneAreaDetector file="e2output.xml" freq="60" friendlyPos="x" id="road_4_2_2_2" lane="road_4_2_2_2" length="100" pos="672.8"/>
    <laneAreaDetector file="e2output.xml" freq="60" friendlyPos="x" id="road_4_2_2_3" lane="road_4_2_2_3" length="100" pos="672.8"/>
    <laneAreaDetector file="e2output.xml" freq="60" friendlyPos="x" id="road_4_2_3_1" lane="road_4_2_3_1" length="100" pos="472.79999999999995"/>
    <laneAreaDetector file="e2output.xml" freq="60" friendlyPos="x" id="road_4_2_3_2" lane="road_4_2_3_2" length="100" pos="472.79999999999995"/>
    <laneAreaDetector file="e2output.xml" freq="60" friendlyPos="x" id="road_4_2_3_3" lane="road_4_2_3_3" length="100" pos="472.79999999999995"/>
    <laneAreaDetector file="e2output.xml" freq="60" friendlyPos="x" id="road_4_3_0_1" lane="road_4_3_0_1" length="100" pos="686.4"/>
    <laneAreaDetector file="e2output.xml" freq="60" friendlyPos="x" id="road_4_3_0_2" lane="road_4_3_0_2" length="100" pos="686.4"/>
    <laneAreaDetector file="e2output.xml" freq="60" friendlyPos="x" id="road_4_3_0_3" lane="road_4_3_0_3" length="100" pos="686.4"/>
    <laneAreaDetector file="e2output.xml" freq="60" friendlyPos="x" id="road_4_3_1_1" lane="road_4_3_1_1" length="100" pos="472.79999999999995"/>
    <laneAreaDetector file="e2output.xml" freq="60" friendlyPos="x" id="road_4_3_1_2" lane="road_4_3_1_2" length="100" pos="472.79999999999995"/>
    <laneAreaDetector file="e2output.xml" freq="60" friendlyPos="x" id="road_4_3_1_3" lane="road_4_3_1_3" length="100" pos="472.79999999999995"/>
    <laneAreaDetector file="e2output.xml" freq="60" friendlyPos="x" id="road_4_3_2_1" lane="road_4_3_2_1" length="100" pos="672.8"/>
    <laneAreaDetector file="e2output.xml" freq="60" friendlyPos="x" id="road_4_3_2_2" lane="road_4_3_2_2" length="100" pos="672.8"/>
    <laneAreaDetector file="e2output.xml" freq="60" friendlyPos="x" id="road_4_3_2_3" lane="road_4_3_2_3" length="100" pos="672.8"/>
    <laneAreaDetector file="e2output.xml" freq="60" friendlyPos="x" id="road_4_3_3_1" lane="road_4_3_3_1" length="100" pos="472.79999999999995"/>
    <laneAreaDetector file="e2output.xml" freq="60" friendlyPos="x" id="road_4_3_3_2" lane="road_4_3_3_2" length="100" pos="472.79999999999995"/>
    <laneAreaDetector file="e2output.xml" freq="60" friendlyPos="x" id="road_4_3_3_3" lane="road_4_3_3_3" length="100" pos="472.79999999999995"/>
    <laneAreaDetector file="e2output.xml" freq="60" friendlyPos="x" id="road_4_4_0_1" lane="road_4_4_0_1" length="100" pos="686.4"/>
    <laneAreaDetector file="e2output.xml" freq="60" friendlyPos="x" id="road_4_4_0_2" lane="road_4_4_0_2" length="100" pos="686.4"/>
    <laneAreaDetector file="e2output.xml" freq="60" friendlyPos="x" id="road_4_4_0_3" lane="road_4_4_0_3" length="100" pos="686.4"/>