<?xml version="1.0" encoding="UTF-8"?>

<!-- generated on 2024-10-09 17:41:57 by Eclipse SUMO netedit Version 1.18.0
<configuration xmlns:xsi="http://www.w3.org/2001/XMLSchema-instance" xsi:noNamespaceSchemaLocation="http://sumo.dlr.de/xsd/neteditConfiguration.xsd">

    <input>
        <sumo-net-file value="D:\ours_raw_data\hangzhou_4x4_gudang_18041610_1h.net.xml"/>
    </input>

    <output>
        <output-file value="D:\ours_raw_data\hangzhou_4x4_gudang_18041610_1h.net.xml"/>
    </output>

    <processing>
        <geometry.min-radius.fix.railways value="false"/>
        <geometry.max-grade.fix value="false"/>
        <offset.disable-normalization value="true"/>
        <lefthand value="0"/>
    </processing>

    <junctions>
        <no-internal-links value="false"/>
        <no-turnarounds value="true"/>
        <junctions.corner-detail value="5"/>
        <junctions.limit-turn-speed value="5.50"/>
        <rectangular-lane-cut value="0"/>
    </junctions>

    <pedestrian>
        <walkingareas value="0"/>
    </pedestrian>

</configuration>
-->

<net version="1.16" junctionCornerDetail="5" limitTurnSpeed="5.50" xmlns:xsi="http://www.w3.org/2001/XMLSchema-instance" xsi:noNamespaceSchemaLocation="http://sumo.dlr.de/xsd/net_file.xsd">

    <location netOffset="800.00,600.00" convBoundary="0.00,0.00,4000.00,3000.00" origBoundary="-800.00,-600.00,3200.00,2400.00" projParameter="!"/>

    <edge id=":intersection_0_1_0" function="internal">
        <lane id=":intersection_0_1_0_0" index="0" disallow="pedestrian" speed="3.65" length="4.67" shape="0.00,601.60 -1.20,600.80 -1.60,600.00 -1.20,599.20 0.00,598.40"/>
    </edge>
    <edge id=":intersection_0_1_w0" function="walkingarea">
        <lane id=":intersection_0_1_w0_0" index="0" allow="pedestrian" speed="2.78" length="21.20" width="2.00" shape="0.00,590.40 0.00,588.40 0.00,611.60 0.00,609.60"/>
    </edge>
    <edge id=":intersection_0_2_0" function="internal">
        <lane id=":intersection_0_2_0_0" index="0" disallow="pedestrian" speed="3.65" length="4.67" shape="0.00,1201.60 -1.20,1200.80 -1.60,1200.00 -1.20,1199.20 0.00,1198.40"/>
    </edge>
    <edge id=":intersection_0_2_w0" function="walkingarea">
        <lane id=":intersection_0_2_w0_0" index="0" allow="pedestrian" speed="2.78" length="21.20" width="2.00" shape="0.00,1190.40 0.00,1188.40 0.00,1211.60 0.00,1209.60"/>
    </edge>
    <edge id=":intersection_0_3_0" function="internal">
        <lane id=":intersection_0_3_0_0" index="0" disallow="pedestrian" speed="3.65" length="4.67" shape="0.00,1801.60 -1.20,1800.80 -1.60,1800.00 -1.20,1799.20 0.00,1798.40"/>
    </edge>
    <edge id=":intersection_0_3_w0" function="walkingarea">
        <lane id=":intersection_0_3_w0_0" index="0" allow="pedestrian" speed="2.78" length="21.20" width="2.00" shape="0.00,1790.40 0.00,1788.40 0.00,1811.60 0.00,1809.60"/>
    </edge>
    <edge id=":intersection_0_4_0" function="internal">
        <lane id=":intersection_0_4_0_0" index="0" disallow="pedestrian" speed="3.65" length="4.67" shape="0.00,2401.60 -1.20,2400.80 -1.60,2400.00 -1.20,2399.20 0.00,2398.40"/>
    </edge>
    <edge id=":intersection_0_4_w0" function="walkingarea">
        <lane id=":intersection_0_4_w0_0" index="0" allow="pedestrian" speed="2.78" length="21.20" width="2.00" shape="0.00,2390.40 0.00,2388.40 0.00,2411.60 0.00,2409.60"/>
    </edge>
    <edge id=":intersection_1_0_0" function="internal">
        <lane id=":intersection_1_0_0_0" index="0" disallow="pedestrian" speed="3.65" length="4.67" shape="798.40,0.00 799.20,-1.20 800.00,-1.60 800.80,-1.20 801.60,0.00"/>
    </edge>
    <edge id=":intersection_1_0_w0" function="walkingarea">
        <lane id=":intersection_1_0_w0_0" index="0" allow="pedestrian" speed="2.78" length="21.20" width="2.00" shape="809.60,0.00 811.60,0.00 788.40,0.00 790.40,0.00"/>
    </edge>
    <edge id=":intersection_1_1_0" function="internal">
        <lane id=":intersection_1_1_0_0" index="0" disallow="pedestrian" speed="6.51" length="4.75" shape="792.00,613.60 791.65,611.15 790.60,609.40 790.40,609.28"/>
        <lane id=":intersection_1_1_0_1" index="1" disallow="pedestrian" speed="7.33" length="7.08" shape="792.00,613.60 791.65,609.75 790.60,607.00 790.40,606.81"/>
        <lane id=":intersection_1_1_0_2" index="2" disallow="pedestrian" speed="8.10" length="9.48" shape="792.00,613.60 791.65,608.35 790.60,604.60 790.40,604.34"/>
    </edge>
    <edge id=":intersection_1_1_3" function="internal">
        <lane id=":intersection_1_1_3_0" index="0" disallow="pedestrian" speed="11.11" length="27.37" shape="795.20,613.60 794.70,605.50 793.60,600.00 792.50,594.50 792.00,586.40"/>
        <lane id=":intersection_1_1_3_1" index="1" disallow="pedestrian" speed="11.11" length="27.37" shape="795.20,613.60 795.20,586.40"/>
        <lane id=":intersection_1_1_3_2" index="2" disallow="pedestrian" speed="11.11" length="27.37" shape="795.20,613.60 795.70,605.50 796.80,600.00 797.90,594.50 798.40,586.40"/>
    </edge>
    <edge id=":intersection_1_1_6" function="internal">
        <lane id=":intersection_1_1_6_0" index="0" disallow="pedestrian" speed="11.11" length="25.77" shape="798.40,613.60 799.35,604.15 802.20,597.40 806.95,593.35 809.60,592.81"/>
        <lane id=":intersection_1_1_6_1" index="1" disallow="pedestrian" speed="10.88" length="23.08" shape="798.40,613.60 799.35,605.55 802.20,599.80 806.95,596.35 809.60,595.89"/>
        <lane id=":intersection_1_1_6_2" index="2" disallow="pedestrian" speed="10.36" length="20.47" shape="798.40,613.60 799.35,606.95 802.20,602.20 806.95,599.35 809.60,598.97"/>
    </edge>
    <edge id=":intersection_1_1_36" function="internal">
        <lane id=":intersection_1_1_36_0" index="0" disallow="pedestrian" speed="6.51" length="4.28" shape="790.40,609.28 788.85,608.35 786.40,608.00"/>
    </edge>
    <edge id=":intersection_1_1_37" function="internal">
        <lane id=":intersection_1_1_37_0" index="0" disallow="pedestrian" speed="7.33" length="4.64" shape="790.40,606.81 788.85,605.35 786.40,604.80"/>
    </edge>
    <edge id=":intersection_1_1_38" function="internal">
        <lane id=":intersection_1_1_38_0" index="0" disallow="pedestrian" speed="8.10" length="5.09" shape="790.40,604.34 788.85,602.35 786.40,601.60"/>
    </edge>
    <edge id=":intersection_1_1_39" function="internal">
        <lane id=":intersection_1_1_39_0" index="0" disallow="pedestrian" speed="11.11" length="4.08" shape="809.60,592.81 813.60,592.00"/>
    </edge>
    <edge id=":intersection_1_1_40" function="internal">
        <lane id=":intersection_1_1_40_0" index="0" disallow="pedestrian" speed="10.88" length="4.06" shape="809.60,595.89 813.60,595.20"/>
    </edge>
    <edge id=":intersection_1_1_41" function="internal">
        <lane id=":intersection_1_1_41_0" index="0" disallow="pedestrian" speed="10.36" length="4.04" shape="809.60,598.97 813.60,598.40"/>
    </edge>
    <edge id=":intersection_1_1_9" function="internal">
        <lane id=":intersection_1_1_9_0" index="0" disallow="pedestrian" speed="6.51" length="4.75" shape="813.60,608.00 811.15,608.35 809.40,609.40 809.28,609.60"/>
        <lane id=":intersection_1_1_9_1" index="1" disallow="pedestrian" speed="7.33" length="7.08" shape="813.60,608.00 809.75,608.35 807.00,609.40 806.81,609.60"/>
        <lane id=":intersection_1_1_9_2" index="2" disallow="pedestrian" speed="8.10" length="9.48" shape="813.60,608.00 808.35,608.35 804.60,609.40 804.34,609.60"/>
    </edge>
    <edge id=":intersection_1_1_12" function="internal">
        <lane id=":intersection_1_1_12_0" index="0" disallow="pedestrian" speed="11.11" length="27.37" shape="813.60,604.80 805.50,605.30 800.00,606.40 794.50,607.50 786.40,608.00"/>
        <lane id=":intersection_1_1_12_1" index="1" disallow="pedestrian" speed="11.11" length="27.37" shape="813.60,604.80 786.40,604.80"/>
        <lane id=":intersection_1_1_12_2" index="2" disallow="pedestrian" speed="11.11" length="27.37" shape="813.60,604.80 805.50,604.30 800.00,603.20 794.50,602.10 786.40,601.60"/>
    </edge>
    <edge id=":intersection_1_1_15" function="internal">
        <lane id=":intersection_1_1_15_0" index="0" disallow="pedestrian" speed="11.11" length="25.77" shape="813.60,601.60 804.15,600.65 797.40,597.80 793.35,593.05 792.81,590.40"/>
        <lane id=":intersection_1_1_15_1" index="1" disallow="pedestrian" speed="10.88" length="23.08" shape="813.60,601.60 805.55,600.65 799.80,597.80 796.35,593.05 795.89,590.40"/>
        <lane id=":intersection_1_1_15_2" index="2" disallow="pedestrian" speed="10.36" length="20.47" shape="813.60,601.60 806.95,600.65 802.20,597.80 799.35,593.05 798.97,590.40"/>
    </edge>
    <edge id=":intersection_1_1_42" function="internal">
        <lane id=":intersection_1_1_42_0" index="0" disallow="pedestrian" speed="6.51" length="4.28" shape="809.28,609.60 808.35,611.15 808.00,613.60"/>
    </edge>
    <edge id=":intersection_1_1_43" function="internal">
        <lane id=":intersection_1_1_43_0" index="0" disallow="pedestrian" speed="7.33" length="4.64" shape="806.81,609.60 805.35,611.15 804.80,613.60"/>
    </edge>
    <edge id=":intersection_1_1_44" function="internal">
        <lane id=":intersection_1_1_44_0" index="0" disallow="pedestrian" speed="8.10" length="5.09" shape="804.34,609.60 802.35,611.15 801.60,613.60"/>
    </edge>
    <edge id=":intersection_1_1_45" function="internal">
        <lane id=":intersection_1_1_45_0" index="0" disallow="pedestrian" speed="11.11" length="4.08" shape="792.81,590.40 792.00,586.40"/>
    </edge>
    <edge id=":intersection_1_1_46" function="internal">
        <lane id=":intersection_1_1_46_0" index="0" disallow="pedestrian" speed="10.88" length="4.06" shape="795.89,590.40 795.20,586.40"/>
    </edge>
    <edge id=":intersection_1_1_47" function="internal">
        <lane id=":intersection_1_1_47_0" index="0" disallow="pedestrian" speed="10.36" length="4.04" shape="798.97,590.40 798.40,586.40"/>
    </edge>
    <edge id=":intersection_1_1_18" function="internal">
        <lane id=":intersection_1_1_18_0" index="0" disallow="pedestrian" speed="6.51" length="4.75" shape="808.00,586.40 808.35,588.85 809.40,590.60 809.60,590.72"/>
        <lane id=":intersection_1_1_18_1" index="1" disallow="pedestrian" speed="7.33" length="7.08" shape="808.00,586.40 808.35,590.25 809.40,593.00 809.60,593.19"/>
        <lane id=":intersection_1_1_18_2" index="2" disallow="pedestrian" speed="8.10" length="9.48" shape="808.00,586.40 808.35,591.65 809.40,595.40 809.60,595.66"/>
    </edge>
    <edge id=":intersection_1_1_21" function="internal">
        <lane id=":intersection_1_1_21_0" index="0" disallow="pedestrian" speed="11.11" length="27.37" shape="804.80,586.40 805.30,594.50 806.40,600.00 807.50,605.50 808.00,613.60"/>
        <lane id=":intersection_1_1_21_1" index="1" disallow="pedestrian" speed="11.11" length="27.37" shape="804.80,586.40 804.80,613.60"/>
        <lane id=":intersection_1_1_21_2" index="2" disallow="pedestrian" speed="11.11" length="27.37" shape="804.80,586.40 804.30,594.50 803.20,600.00 802.10,605.50 801.60,613.60"/>
    </edge>
    <edge id=":intersection_1_1_24" function="internal">
        <lane id=":intersection_1_1_24_0" index="0" disallow="pedestrian" speed="11.11" length="25.77" shape="801.60,586.40 800.65,595.85 797.80,602.60 793.05,606.65 790.40,607.19"/>
        <lane id=":intersection_1_1_24_1" index="1" disallow="pedestrian" speed="10.88" length="23.08" shape="801.60,586.40 800.65,594.45 797.80,600.20 793.05,603.65 790.40,604.11"/>
        <lane id=":intersection_1_1_24_2" index="2" disallow="pedestrian" speed="10.36" length="20.47" shape="801.60,586.40 800.65,593.05 797.80,597.80 793.05,600.65 790.40,601.03"/>
    </edge>
    <edge id=":intersection_1_1_48" function="internal">
        <lane id=":intersection_1_1_48_0" index="0" disallow="pedestrian" speed="6.51" length="4.28" shape="809.60,590.72 811.15,591.65 813.60,592.00"/>
    </edge>
    <edge id=":intersection_1_1_49" function="internal">
        <lane id=":intersection_1_1_49_0" index="0" disallow="pedestrian" speed="7.33" length="4.64" shape="809.60,593.19 811.15,594.65 813.60,595.20"/>
    </edge>
    <edge id=":intersection_1_1_50" function="internal">
        <lane id=":intersection_1_1_50_0" index="0" disallow="pedestrian" speed="8.10" length="5.09" shape="809.60,595.66 811.15,597.65 813.60,598.40"/>
    </edge>
    <edge id=":intersection_1_1_51" function="internal">
        <lane id=":intersection_1_1_51_0" index="0" disallow="pedestrian" speed="11.11" length="4.08" shape="790.40,607.19 786.40,608.00"/>
    </edge>
    <edge id=":intersection_1_1_52" function="internal">
        <lane id=":intersection_1_1_52_0" index="0" disallow="pedestrian" speed="10.88" length="4.06" shape="790.40,604.11 786.40,604.80"/>
    </edge>
    <edge id=":intersection_1_1_53" function="internal">
        <lane id=":intersection_1_1_53_0" index="0" disallow="pedestrian" speed="10.36" length="4.04" shape="790.40,601.03 786.40,601.60"/>
    </edge>
    <edge id=":intersection_1_1_27" function="internal">
        <lane id=":intersection_1_1_27_0" index="0" disallow="pedestrian" speed="6.51" length="4.75" shape="786.40,592.00 788.85,591.65 790.60,590.60 790.72,590.40"/>
        <lane id=":intersection_1_1_27_1" index="1" disallow="pedestrian" speed="7.33" length="7.08" shape="786.40,592.00 790.25,591.65 793.00,590.60 793.19,590.40"/>
        <lane id=":intersection_1_1_27_2" index="2" disallow="pedestrian" speed="8.10" length="9.48" shape="786.40,592.00 791.65,591.65 795.40,590.60 795.66,590.40"/>
    </edge>
    <edge id=":intersection_1_1_30" function="internal">
        <lane id=":intersection_1_1_30_0" index="0" disallow="pedestrian" speed="11.11" length="27.37" shape="786.40,595.20 794.50,594.70 800.00,593.60 805.50,592.50 813.60,592.00"/>
        <lane id=":intersection_1_1_30_1" index="1" disallow="pedestrian" speed="11.11" length="27.37" shape="786.40,595.20 813.60,595.20"/>
        <lane id=":intersection_1_1_30_2" index="2" disallow="pedestrian" speed="11.11" length="27.37" shape="786.40,595.20 794.50,595.70 800.00,596.80 805.50,597.90 813.60,598.40"/>
    </edge>
    <edge id=":intersection_1_1_33" function="internal">
        <lane id=":intersection_1_1_33_0" index="0" disallow="pedestrian" speed="11.11" length="25.77" shape="786.40,598.40 795.85,599.35 802.60,602.20 806.65,606.95 807.19,609.60"/>
        <lane id=":intersection_1_1_33_1" index="1" disallow="pedestrian" speed="10.88" length="23.08" shape="786.40,598.40 794.45,599.35 800.20,602.20 803.65,606.95 804.11,609.60"/>
        <lane id=":intersection_1_1_33_2" index="2" disallow="pedestrian" speed="10.36" length="20.47" shape="786.40,598.40 793.05,599.35 797.80,602.20 800.65,606.95 801.03,609.60"/>
    </edge>
    <edge id=":intersection_1_1_54" function="internal">
        <lane id=":intersection_1_1_54_0" index="0" disallow="pedestrian" speed="6.51" length="4.28" shape="790.72,590.40 791.65,588.85 792.00,586.40"/>
    </edge>
    <edge id=":intersection_1_1_55" function="internal">
        <lane id=":intersection_1_1_55_0" index="0" disallow="pedestrian" speed="7.33" length="4.64" shape="793.19,590.40 794.65,588.85 795.20,586.40"/>
    </edge>
    <edge id=":intersection_1_1_56" function="internal">
        <lane id=":intersection_1_1_56_0" index="0" disallow="pedestrian" speed="8.10" length="5.09" shape="795.66,590.40 797.65,588.85 798.40,586.40"/>
    </edge>
    <edge id=":intersection_1_1_57" function="internal">
        <lane id=":intersection_1_1_57_0" index="0" disallow="pedestrian" speed="11.11" length="4.08" shape="807.19,609.60 808.00,613.60"/>
    </edge>
    <edge id=":intersection_1_1_58" function="internal">
        <lane id=":intersection_1_1_58_0" index="0" disallow="pedestrian" speed="10.88" length="4.06" shape="804.11,609.60 804.80,613.60"/>
    </edge>
    <edge id=":intersection_1_1_59" function="internal">
        <lane id=":intersection_1_1_59_0" index="0" disallow="pedestrian" speed="10.36" length="4.04" shape="801.03,609.60 801.60,613.60"/>
    </edge>
    <edge id=":intersection_1_1_c0" function="crossing" crossingEdges="road_1_1_1 road_1_2_3">
        <lane id=":intersection_1_1_c0_0" index="0" allow="pedestrian" speed="2.78" length="19.20" width="4.00" shape="809.60,611.60 790.40,611.60"/>
    </edge>
    <edge id=":intersection_1_1_c1" function="crossing" crossingEdges="road_1_1_0 road_2_1_2">
        <lane id=":intersection_1_1_c1_0" index="0" allow="pedestrian" speed="2.78" length="19.20" width="4.00" shape="811.60,590.40 811.60,609.60"/>
    </edge>
    <edge id=":intersection_1_1_c2" function="crossing" crossingEdges="road_1_1_3 road_1_0_1">
        <lane id=":intersection_1_1_c2_0" index="0" allow="pedestrian" speed="2.78" length="19.20" width="4.00" shape="790.40,588.40 809.60,588.40"/>
    </edge>
    <edge id=":intersection_1_1_c3" function="crossing" crossingEdges="road_1_1_2 road_0_1_0">
        <lane id=":intersection_1_1_c3_0" index="0" allow="pedestrian" speed="2.78" length="19.20" width="4.00" shape="788.40,609.60 788.40,590.40"/>
    </edge>
    <edge id=":intersection_1_1_w0" function="walkingarea">
        <lane id=":intersection_1_1_w0_0" index="0" allow="pedestrian" speed="2.78" length="3.30" width="4.00" shape="786.40,609.60 786.40,611.60 788.40,613.60 790.40,613.60 790.29,612.38 789.96,611.38 789.40,610.60 788.62,610.04 787.62,609.71"/>
    </edge>
    <edge id=":intersection_1_1_w1" function="walkingarea">
        <lane id=":intersection_1_1_w1_0" index="0" allow="pedestrian" speed="2.78" length="3.30" width="4.00" shape="809.60,613.60 811.60,613.60 813.60,611.60 813.60,609.60 812.38,609.71 811.38,610.04 810.60,610.60 810.04,611.38 809.71,612.38"/>
    </edge>
    <edge id=":intersection_1_1_w2" function="walkingarea">
        <lane id=":intersection_1_1_w2_0" index="0" allow="pedestrian" speed="2.78" length="3.30" width="4.00" shape="813.60,590.40 813.60,588.40 811.60,586.40 809.60,586.40 809.71,587.62 810.04,588.62 810.60,589.40 811.38,589.96 812.38,590.29"/>
    </edge>
    <edge id=":intersection_1_1_w3" function="walkingarea">
        <lane id=":intersection_1_1_w3_0" index="0" allow="pedestrian" speed="2.78" length="3.30" width="4.00" shape="790.40,586.40 788.40,586.40 786.40,588.40 786.40,590.40 787.62,590.29 788.62,589.96 789.40,589.40 789.96,588.62 790.29,587.62"/>
    </edge>
    <edge id=":intersection_1_2_0" function="internal">
        <lane id=":intersection_1_2_0_0" index="0" disallow="pedestrian" speed="6.51" length="4.75" shape="792.00,1213.60 791.65,1211.15 790.60,1209.40 790.40,1209.28"/>
        <lane id=":intersection_1_2_0_1" index="1" disallow="pedestrian" speed="7.33" length="7.08" shape="792.00,1213.60 791.65,1209.75 790.60,1207.00 790.40,1206.81"/>
        <lane id=":intersection_1_2_0_2" index="2" disallow="pedestrian" speed="8.10" length="9.48" shape="792.00,1213.60 791.65,1208.35 790.60,1204.60 790.40,1204.34"/>
    </edge>
    <edge id=":intersection_1_2_3" function="internal">
        <lane id=":intersection_1_2_3_0" index="0" disallow="pedestrian" speed="11.11" length="27.37" shape="795.20,1213.60 794.70,1205.50 793.60,1200.00 792.50,1194.50 792.00,1186.40"/>
        <lane id=":intersection_1_2_3_1" index="1" disallow="pedestrian" speed="11.11" length="27.37" shape="795.20,1213.60 795.20,1186.40"/>
        <lane id=":intersection_1_2_3_2" index="2" disallow="pedestrian" speed="11.11" length="27.37" shape="795.20,1213.60 795.70,1205.50 796.80,1200.00 797.90,1194.50 798.40,1186.40"/>
    </edge>
    <edge id=":intersection_1_2_6" function="internal">
        <lane id=":intersection_1_2_6_0" index="0" disallow="pedestrian" speed="11.11" length="25.77" shape="798.40,1213.60 799.35,1204.15 802.20,1197.40 806.95,1193.35 809.60,1192.81"/>
        <lane id=":intersection_1_2_6_1" index="1" disallow="pedestrian" speed="10.88" length="23.08" shape="798.40,1213.60 799.35,1205.55 802.20,1199.80 806.95,1196.35 809.60,1195.89"/>
        <lane id=":intersection_1_2_6_2" index="2" disallow="pedestrian" speed="10.36" length="20.47" shape="798.40,1213.60 799.35,1206.95 802.20,1202.20 806.95,1199.35 809.60,1198.97"/>
    </edge>
    <edge id=":intersection_1_2_36" function="internal">
        <lane id=":intersection_1_2_36_0" index="0" disallow="pedestrian" speed="6.51" length="4.28" shape="790.40,1209.28 788.85,1208.35 786.40,1208.00"/>
    </edge>
    <edge id=":intersection_1_2_37" function="internal">
        <lane id=":intersection_1_2_37_0" index="0" disallow="pedestrian" speed="7.33" length="4.64" shape="790.40,1206.81 788.85,1205.35 786.40,1204.80"/>
    </edge>
    <edge id=":intersection_1_2_38" function="internal">
        <lane id=":intersection_1_2_38_0" index="0" disallow="pedestrian" speed="8.10" length="5.09" shape="790.40,1204.34 788.85,1202.35 786.40,1201.60"/>
    </edge>
    <edge id=":intersection_1_2_39" function="internal">
        <lane id=":intersection_1_2_39_0" index="0" disallow="pedestrian" speed="11.11" length="4.08" shape="809.60,1192.81 813.60,1192.00"/>
    </edge>
    <edge id=":intersection_1_2_40" function="internal">
        <lane id=":intersection_1_2_40_0" index="0" disallow="pedestrian" speed="10.88" length="4.06" shape="809.60,1195.89 813.60,1195.20"/>
    </edge>
    <edge id=":intersection_1_2_41" function="internal">
        <lane id=":intersection_1_2_41_0" index="0" disallow="pedestrian" speed="10.36" length="4.04" shape="809.60,1198.97 813.60,1198.40"/>
    </edge>
    <edge id=":intersection_1_2_9" function="internal">
        <lane id=":intersection_1_2_9_0" index="0" disallow="pedestrian" speed="6.51" length="4.75" shape="813.60,1208.00 811.15,1208.35 809.40,1209.40 809.28,1209.60"/>
        <lane id=":intersection_1_2_9_1" index="1" disallow="pedestrian" speed="7.33" length="7.08" shape="813.60,1208.00 809.75,1208.35 807.00,1209.40 806.81,1209.60"/>
        <lane id=":intersection_1_2_9_2" index="2" disallow="pedestrian" speed="8.10" length="9.48" shape="813.60,1208.00 808.35,1208.35 804.60,1209.40 804.34,1209.60"/>
    </edge>
    <edge id=":intersection_1_2_12" function="internal">
        <lane id=":intersection_1_2_12_0" index="0" disallow="pedestrian" speed="11.11" length="27.37" shape="813.60,1204.80 805.50,1205.30 800.00,1206.40 794.50,1207.50 786.40,1208.00"/>
        <lane id=":intersection_1_2_12_1" index="1" disallow="pedestrian" speed="11.11" length="27.37" shape="813.60,1204.80 786.40,1204.80"/>
        <lane id=":intersection_1_2_12_2" index="2" disallow="pedestrian" speed="11.11" length="27.37" shape="813.60,1204.80 805.50,1204.30 800.00,1203.20 794.50,1202.10 786.40,1201.60"/>
    </edge>
    <edge id=":intersection_1_2_15" function="internal">
        <lane id=":intersection_1_2_15_0" index="0" disallow="pedestrian" speed="11.11" length="25.77" shape="813.60,1201.60 804.15,1200.65 797.40,1197.80 793.35,1193.05 792.81,1190.40"/>
        <lane id=":intersection_1_2_15_1" index="1" disallow="pedestrian" speed="10.88" length="23.08" shape="813.60,1201.60 805.55,1200.65 799.80,1197.80 796.35,1193.05 795.89,1190.40"/>
        <lane id=":intersection_1_2_15_2" index="2" disallow="pedestrian" speed="10.36" length="20.47" shape="813.60,1201.60 806.95,1200.65 802.20,1197.80 799.35,1193.05 798.97,1190.40"/>
    </edge>
    <edge id=":intersection_1_2_42" function="internal">
        <lane id=":intersection_1_2_42_0" index="0" disallow="pedestrian" speed="6.51" length="4.28" shape="809.28,1209.60 808.35,1211.15 808.00,1213.60"/>
    </edge>
    <edge id=":intersection_1_2_43" function="internal">
        <lane id=":intersection_1_2_43_0" index="0" disallow="pedestrian" speed="7.33" length="4.64" shape="806.81,1209.60 805.35,1211.15 804.80,1213.60"/>
    </edge>
    <edge id=":intersection_1_2_44" function="internal">
        <lane id=":intersection_1_2_44_0" index="0" disallow="pedestrian" speed="8.10" length="5.09" shape="804.34,1209.60 802.35,1211.15 801.60,1213.60"/>
    </edge>
    <edge id=":intersection_1_2_45" function="internal">
        <lane id=":intersection_1_2_45_0" index="0" disallow="pedestrian" speed="11.11" length="4.08" shape="792.81,1190.40 792.00,1186.40"/>
    </edge>
    <edge id=":intersection_1_2_46" function="internal">
        <lane id=":intersection_1_2_46_0" index="0" disallow="pedestrian" speed="10.88" length="4.06" shape="795.89,1190.40 795.20,1186.40"/>
    </edge>
    <edge id=":intersection_1_2_47" function="internal">
        <lane id=":intersection_1_2_47_0" index="0" disallow="pedestrian" speed="10.36" length="4.04" shape="798.97,1190.40 798.40,1186.40"/>
    </edge>
    <edge id=":intersection_1_2_18" function="internal">
        <lane id=":intersection_1_2_18_0" index="0" disallow="pedestrian" speed="6.51" length="4.75" shape="808.00,1186.40 808.35,1188.85 809.40,1190.60 809.60,1190.72"/>
        <lane id=":intersection_1_2_18_1" index="1" disallow="pedestrian" speed="7.33" length="7.08" shape="808.00,1186.40 808.35,1190.25 809.40,1193.00 809.60,1193.19"/>
        <lane id=":intersection_1_2_18_2" index="2" disallow="pedestrian" speed="8.10" length="9.48" shape="808.00,1186.40 808.35,1191.65 809.40,1195.40 809.60,1195.66"/>
    </edge>
    <edge id=":intersection_1_2_21" function="internal">
        <lane id=":intersection_1_2_21_0" index="0" disallow="pedestrian" speed="11.11" length="27.37" shape="804.80,1186.40 805.30,1194.50 806.40,1200.00 807.50,1205.50 808.00,1213.60"/>
        <lane id=":intersection_1_2_21_1" index="1" disallow="pedestrian" speed="11.11" length="27.37" shape="804.80,1186.40 804.80,1213.60"/>
        <lane id=":intersection_1_2_21_2" index="2" disallow="pedestrian" speed="11.11" length="27.37" shape="804.80,1186.40 804.30,1194.50 803.20,1200.00 802.10,1205.50 801.60,1213.60"/>
    </edge>
    <edge id=":intersection_1_2_24" function="internal">
        <lane id=":intersection_1_2_24_0" index="0" disallow="pedestrian" speed="11.11" length="25.77" shape="801.60,1186.40 800.65,1195.85 797.80,1202.60 793.05,1206.65 790.40,1207.19"/>
        <lane id=":intersection_1_2_24_1" index="1" disallow="pedestrian" speed="10.88" length="23.08" shape="801.60,1186.40 800.65,1194.45 797.80,1200.20 793.05,1203.65 790.40,1204.11"/>
        <lane id=":intersection_1_2_24_2" index="2" disallow="pedestrian" speed="10.36" length="20.47" shape="801.60,1186.40 800.65,1193.05 797.80,1197.80 793.05,1200.65 790.40,1201.03"/>
    </edge>
    <edge id=":intersection_1_2_48" function="internal">
        <lane id=":intersection_1_2_48_0" index="0" disallow="pedestrian" speed="6.51" length="4.28" shape="809.60,1190.72 811.15,1191.65 813.60,1192.00"/>
    </edge>
    <edge id=":intersection_1_2_49" function="internal">
        <lane id=":intersection_1_2_49_0" index="0" disallow="pedestrian" speed="7.33" length="4.64" shape="809.60,1193.19 811.15,1194.65 813.60,1195.20"/>
    </edge>
    <edge id=":intersection_1_2_50" function="internal">
        <lane id=":intersection_1_2_50_0" index="0" disallow="pedestrian" speed="8.10" length="5.09" shape="809.60,1195.66 811.15,1197.65 813.60,1198.40"/>
    </edge>
    <edge id=":intersection_1_2_51" function="internal">
        <lane id=":intersection_1_2_51_0" index="0" disallow="pedestrian" speed="11.11" length="4.08" shape="790.40,1207.19 786.40,1208.00"/>
    </edge>
    <edge id=":intersection_1_2_52" function="internal">
        <lane id=":intersection_1_2_52_0" index="0" disallow="pedestrian" speed="10.88" length="4.06" shape="790.40,1204.11 786.40,1204.80"/>
    </edge>
    <edge id=":intersection_1_2_53" function="internal">
        <lane id=":intersection_1_2_53_0" index="0" disallow="pedestrian" speed="10.36" length="4.04" shape="790.40,1201.03 786.40,1201.60"/>
    </edge>
    <edge id=":intersection_1_2_27" function="internal">
        <lane id=":intersection_1_2_27_0" index="0" disallow="pedestrian" speed="6.51" length="4.75" shape="786.40,1192.00 788.85,1191.65 790.60,1190.60 790.72,1190.40"/>
        <lane id=":intersection_1_2_27_1" index="1" disallow="pedestrian" speed="7.33" length="7.08" shape="786.40,1192.00 790.25,1191.65 793.00,1190.60 793.19,1190.40"/>
        <lane id=":intersection_1_2_27_2" index="2" disallow="pedestrian" speed="8.10" length="9.48" shape="786.40,1192.00 791.65,1191.65 795.40,1190.60 795.66,1190.40"/>
    </edge>
    <edge id=":intersection_1_2_30" function="internal">
        <lane id=":intersection_1_2_30_0" index="0" disallow="pedestrian" speed="11.11" length="27.37" shape="786.40,1195.20 794.50,1194.70 800.00,1193.60 805.50,1192.50 813.60,1192.00"/>
        <lane id=":intersection_1_2_30_1" index="1" disallow="pedestrian" speed="11.11" length="27.37" shape="786.40,1195.20 813.60,1195.20"/>
        <lane id=":intersection_1_2_30_2" index="2" disallow="pedestrian" speed="11.11" length="27.37" shape="786.40,1195.20 794.50,1195.70 800.00,1196.80 805.50,1197.90 813.60,1198.40"/>
    </edge>
    <edge id=":intersection_1_2_33" function="internal">
        <lane id=":intersection_1_2_33_0" index="0" disallow="pedestrian" speed="11.11" length="25.77" shape="786.40,1198.40 795.85,1199.35 802.60,1202.20 806.65,1206.95 807.19,1209.60"/>
        <lane id=":intersection_1_2_33_1" index="1" disallow="pedestrian" speed="10.88" length="23.08" shape="786.40,1198.40 794.45,1199.35 800.20,1202.20 803.65,1206.95 804.11,1209.60"/>
        <lane id=":intersection_1_2_33_2" index="2" disallow="pedestrian" speed="10.36" length="20.47" shape="786.40,1198.40 793.05,1199.35 797.80,1202.20 800.65,1206.95 801.03,1209.60"/>
    </edge>
    <edge id=":intersection_1_2_54" function="internal">