<?xml version="1.0" encoding="utf-8"?>
<configuration>
	<input>
		<net-file value="hangzhou_4x4_gudang_18041610_1h.net.xml"/>
		<route-files value="hangzhou_4x4_gudang_18041610_1h.rou.xml,hangzhou_4x4_gudang_18041610_1h_period0_1.trip.xml"/>
		<additional-files value="e2.add.xml"/>
	</input>
	<time>
		<begin value="0"/>
		<end value="3600"/>
	</time>
	<gui_only>
		<gui-settings-file value="viewsettings.xml"/>
	</gui_only>
</configuration>
